STAAD SPACE
SET z UP
UNIT METER MTON
JOINT COORDINATES
264 5 6 14.937;283 5 3 12.809;138 5 0 14.937;3 0 6 7.137;4 5 6 7.137;16 0 6 16.85;7 0 3 19.587;223 0 4.425 7.137;222 5 4.425 7.137;2 5 0 7.137;202 4 1.04 7.137;277 0 0 3.947;285 5 0 3.947;14 0 0 16.85;239 0 4.076 7.137;230 5 4.076 7.137;276 5 0 10.659;235 5 1.25 8.898;100 -1.88283226900191E-15 3.085 16.85;99 5 3.085 16.8556266666667;103 6.07 -1.14 12.809;68 6.07 6 12.809;251 4 6 7.137;39 5 6 12.80
MEMBER INCIDENCES
1 264 283;2 138 264;3 3 4;5 16 7;6 283 138;8 223 222;9 2 202;10 277 285;11 7 14;12 3 277;13 239 230;14 276 235;15 100 99;16 103 68;17 222 251;18 39 68;19 37 66;20 1 280;21 198 242;22 251 220;23 77 193;24 242 197;25 238 54;26 243 234;27 240 55;28 100 38;29 220 259;30 259 226;31 14 16;32 152 157;33 163 56;34 2 4;35 36 100;36 160 55;37 66 57;38 36 37;39 38 39;40 36 38;41 37 39;42 88 75;43 252 58;44 3
DEFINE MATERIAL START
ISOTROPIC ST37
E 21000000
POISSON 0.3
DENSITY 7.85
G 8076923.07692308
ALPHA 1.17E-05
TYPE STEEL
END DEFINE MATERIAL
MEMBER PROPERTY
2 13 26 40 41 63 67 71 75 100 103 104 306 TAPERED 0.23 0.0075 0.23 0.24 0.012 0.24 0.012
3 8 10 15 31 38 42 76 84 86 88 98 101 105 106 110 114 122 137 224 301 302 308 336 TAPERED 0.19 0.0065 0.19 0.2 0.01 0.2 0.01
16 19 32 45 48 59 112 116 120 121 124 127 128 129 164 165 166 168 172 185 190 191 197 236 243 282 291 307 312 320 333 340 347 348 367 369 385 387 TAPERED 0.2 0.00559999990463257 0.2 0.1 0.0085 0.1 0.0085
18 47 TAPERED 0.29 0.0085 0.29 0.3 0.014 0.3 0.014
34 39 77 TAPERED 0.35 0.01 0.35 0.3 0.0175 0.3 0.0175
60 140 141 142 143 TAPERED 0.152 0.006 0.152 0.16 0.009 0.16 0.009
62 80 102 117 119 145 146 181 TAPERED 0.24 0.00619999980926514 0.24 0.12 0.00980000019073486 0.12 0.00980000019073486
147 148 271 272 388 389 390 391 392 393 394 395 TAPERED 0.18 0.00530000019073486 0.18 0.091 0.008 0.091 0.008
149 150 151 152 153 279 281 284 285 TAPERED 0.16 0.005 0.16 0.082 0.00740000009536743 0.082 0.00740000009536743
CONSTANTS
MATERIAL ST37 MEMB 2 3 8 10 13 15 16 18 19 26 31 32 34 38 39 40 41 42 45 47 48 59 60 62 63 67 71 75 76 77 80 84 86 88 98 100 101 102 103 104 105 106 110 112 114 116 117 119 120 121 122 124 127 128 129 137 140 141 142 143 145 146 147 148 149 150 151 152 153 164 165 166 168 172 181 185 190 191 197 224 236 243 271 272 279 281 282 284 285 291 301 302 306 307 308 312 320 333 336 340 347 348 367 369 385
SUPPORTS
171 172 173 174 FIXED BUT MX MY MZ
LOAD 1 LOADTYPE Dead TITLE D
JOINT LOAD
38 FX 0 FY 0 FZ 0.36 MX 0 MY 0 MZ 0
179 FX 0 FY 0 FZ -1.31 MX 0 MY 0 MZ 0
MEMBER LOAD
38 40 41 8 13 26 62 UNI GZ -0.16
47 119 120 190 229 UNI GZ -0.05
63 67 71 75 UNI GZ -0.15
100 101 314 319 321 324 335 342 344 346 UNI GZ -0.06
104 105 106 110 114 137 122 121 236 UNI GZ -0.13
145 146 147 148 290 293 294 295 296 297 298 299 300 303 UNI GZ -0.03
149 150 165 16 45 48 48 77 127 2 34 306 306 117 117 124 124 307 307 172 181 166 167 168 177 180 385 387 387 109 160 163 171 UNI GZ -0.1
3 185 UNI GZ -0.2
243 301 301 301 UNI GZ -0.11
183 188 189 206 UNI GZ -0.009
LOAD 2 LOADTYPE Live TITLE L
JOINT LOAD
38 FX 0 FY 0 FZ -0.06 MX 0 MY 0 MZ 0
179 FX 0 FY 0 FZ -0.18 MX 0 MY 0 MZ 0
MEMBER LOAD
38 40 41 63 67 71 75 3 8 13 26 62 185 UNI GZ -0.4
47 UNI GZ -0.125
100 101 UNI GZ -0.15
104 105 106 110 114 137 122 121 236 UNI GZ -0.33
145 146 147 148 290 293 294 295 296 297 298 299 300 303 119 120 190 UNI GZ -0.13
149 150 172 181 UNI GZ -0.2
165 166 167 168 177 180 109 160 163 171 UNI GZ -0.3
16 45 48 48 77 127 2 34 306 306 117 117 124 124 307 307 243 301 301 301 385 387 387 UNI GZ -0.25
229 UNI GZ -0.1
183 188 189 206 UNI GZ -0.036
LOAD 3 LOADTYPE Wind TITLE WX
JOINT LOAD
38 FX 0 FY 0 FZ -0.14 MX 0 MY 0 MZ 0
179 FX 0 FY 0 FZ -1.25 MX 0 MY 0 MZ 0
MEMBER LOAD
65 66 70 72 UNI GX 0.5
65 70 UNI GX 0.47
65 70 UNI GX 0.44
65 70 UNI GX 0.43
65 65 68 68 UNI GY -0.32
65 68 UNI GY -0.34
65 66 68 69 UNI GY -0.36
66 72 UNI GX 0.52
66 69 UNI GY -0.38
68 73 UNI GX 0.27
68 73 UNI GX 0.28
68 73 UNI GX 0.29
68 69 73 74 UNI GX 0.31
69 74 UNI GX 0.33
70 70 73 73 UNI GY 0.32
70 73 UNI GY 0.34
70 72 73 74 UNI GY 0.36
72 74 UNI GY 0.38
183 188 189 206 UNI GZ 0.1
LOAD 4 LOADTYPE Wind TITLE WX-
JOINT LOAD
38 FX 0 FY 0 FZ 0.14 MX 0 MY 0 MZ 0
179 FX 0 FY 0 FZ 1.25 MX 0 MY 0 MZ 0
MEMBER LOAD
65 70 UNI GX -0.27
65 70 UNI GX -0.28
65 70 UNI GX -0.29
65 66 70 72 UNI GX -0.31
65 65 68 68 UNI GY -0.32
65 68 UNI GY -0.34
65 66 68 69 UNI GY -0.36
66 72 UNI GX -0.33
66 69 UNI GY -0.38
68 73 UNI GX -0.43
68 73 UNI GX -0.44
68 73 UNI GX -0.47
68 69 73 74 UNI GX -0.5
69 74 UNI GX -0.52
70 70 73 73 UNI GY 0.32
70 73 UNI GY 0.34
70 72 73 74 UNI GY 0.36
72 74 UNI GY 0.38
183 188 189 206 UNI GZ 0.1
LOAD 5 LOADTYPE Wind TITLE WY
JOINT LOAD
38 FX 0 FY 0 FZ 0.63 MX 0 MY 0 MZ 0
179 FX 0 FY 0 FZ 0.75 MX 0 MY 0 MZ 0
179 FX -0.97 FY 0 FZ 0 MX 0 MY 0 MZ 0
MEMBER LOAD
65 68 UNI GY 0.36
65 68 UNI GY 0.37
65 68 UNI GY 0.39
65 66 68 69 UNI GY 0.42
65 70 UNI GX -0.38
65 70 UNI GX -0.39
65 70 UNI GX -0.41
65 66 70 72 UNI GX -0.44
66 69 UNI GY 0.43
66 72 UNI GX -0.46
68 73 UNI GX 0.38
68 73 UNI GX 0.39
68 73 UNI GX 0.41
68 69 73 74 UNI GX 0.44
69 74 UNI GX 0.46
70 70 73 73 UNI GY 0.23
70 73 UNI GY 0.24
70 72 73 74 UNI GY 0.26
72 74 UNI GY 0.27
183 188 189 206 UNI GZ 0.1
LOAD 6 LOADTYPE Wind TITLE WY-
JOINT LOAD
38 FX 0 FY 0 FZ -0.93 MX 0 MY 0 MZ 0
179 FX 0 FY 0 FZ -0.75 MX 0 MY 0 MZ 0
179 FX 0.97 FY 0 FZ 0 MX 0 MY 0 MZ 0
MEMBER LOAD
65 65 68 68 UNI GY -0.23
65 68 UNI GY -0.24
65 66 68 69 UNI GY -0.26
65 70 UNI GX -0.38
65 70 UNI GX -0.39
65 70 UNI GX -0.41
65 66 70 72 UNI GX -0.44
66 69 UNI GY -0.27
66 72 UNI GX -0.46
68 73 UNI GX 0.38
68 73 UNI GX 0.39
68 73 UNI GX 0.41
68 69 73 74 UNI GX 0.44
69 74 UNI GX 0.46
70 73 UNI GY -0.36
70 73 UNI GY -0.37
70 73 UNI GY -0.39
70 72 73 74 UNI GY -0.42
72 74 UNI GY -0.43
183 188 189 206 UNI GZ 0.1
LOAD 7 LOADTYPE Other TITLE MECH
JOINT LOAD
38 FX 0 FY 0 FZ 2.63 MX 0 MY 0 MZ 0
50 51 63 34 FX 0 FY 0 FZ -0.3 MX 0 MY 0 MZ 0
28 FX 0 FY 0 FZ -1.15 MX 0 MY 0 MZ 0
124 134 137 140 FX 0 FY 0 FZ -0.85 MX 0 MY 0 MZ 0
179 FX 0 FY 0 FZ -1.22 MX 0 MY 0 MZ 0
179 FX 0 FY 0 FZ -1 MX 0 MY 0 MZ 0
MEMBER LOAD
301 308 UNI GZ -0.162
LOAD 8 LOADTYPE Other TITLE EQX-S
JOINT LOAD
38 FX 0 FY 0 FZ 0.27 MX 0 MY 0 MZ 0
179 FX 0 FY 0 FZ -0.53 MX 0 MY 0 MZ 0
179 FX 0 FY -1.38 FZ 0 MX 0 MY 0 MZ 0
LOAD 9 LOADTYPE Other TITLE EQY-S
JOINT LOAD
38 FX 0 FY 0 FZ 3.28 MX 0 MY 0 MZ 0
179 FX 0 FY 0 FZ -0.88 MX 0 MY 0 MZ 0
179 FX 0 FY -2.35 FZ 0 MX 0 MY 0 MZ 0
LOAD 10 LOADTYPE Other TITLE +T
JOINT LOAD
38 FX 0 FY 0 FZ 5.48 MX 0 MY 0 MZ 0
179 FX 0 FY 0 FZ 0.04 MX 0 MY 0 MZ 0
179 FX 0 FY -6.51 FZ 0 MX 0 MY 0 MZ 0
LOAD 11 LOADTYPE Other TITLE -T
JOINT LOAD
38 FX 0 FY 0 FZ -5.48 MX 0 MY 0 MZ 0
179 FX 0 FY 0 FZ -0.04 MX 0 MY 0 MZ 0
179 FX 0 FY 6.51 FZ 0 MX 0 MY 0 MZ 0
LOAD COMB 12 MASS SOURCE
1 1 2 0.5 7 1 


LOAD COMB 15 TL ( TOTAL LIVE )
2 1 7 1 
LOAD COMB 16 D+TL
1 1 
LOAD COMB 17 D+T
1 1 10 1 
LOAD COMB 18 D-T
1 1 11 1 
LOAD COMB 19 D+TL+T
10 1 
LOAD COMB 20 D+TL-T
11 1 
LOAD COMB 21 0.6D+WX
1 0.6 3 1 
LOAD COMB 22 0.6D-WX
1 0.6 4 1 
LOAD COMB 23 0.6D+WY
1 0.6 5 1 
LOAD COMB 24 0.6D-WY
1 0.6 6 1 
LOAD COMB 25 D+0.75TL+0.75WX
1 1 3 0.75 
LOAD COMB 26 D+0.75TL-0.75WX
1 1 4 0.75 
LOAD COMB 27 D+0.75TL+0.75WY
1 1 5 0.75 
LOAD COMB 28 D+0.75TL-0.75WY
1 1 6 0.75 
LOAD COMB 29 D+0.75TL+0.525SQX
1 1 
LOAD COMB 30 D+0.75TL+0.525SQY
1 1 

FINISH
