STAAD SPACE
SET z UP
UNIT METER MTON
JOINT COORDINATES
79 5 6 14.937;85 5 3 12.809;91 5 0 14.937;97 0 6 7.137;103 5 6 7.137;109 0 6 16.85;115 0 3 19.587;121 0 4.425 7.137;127 5 4.425 7.137;133 5 0 7.137;139 4 1.04 7.137;145 0 0 3.947;151 5 0 3.947;157 0 0 16.85;163 0 4.076 7.137;169 5 4.076 7.137;175 5 0 10.659;181 5 1.25 8.898;187 -1.88283226900191E-15 3.085 16.85;193 5 3.085 16.8556266666667;199 6.07 -1.14 12.809;205 6.07 6 12.809;211 4 6 7.137;217 
MEMBER INCIDENCES
1924 79 85;1934 91 79;1946 97 103;1958 109 115;1968 85 91;1978 121 127;1990 133 139;2000 145 151;2012 115 157;2022 97 145;2032 163 169;2044 175 181;2054 187 193;2066 199 205;2078 127 211;2088 217 205;2100 223 229;2112 235 241;2122 247 253;2132 211 259;2142 265 271;2152 253 277;2162 283 289;2172 295 301;2184 307 313;2194 187 319;2204 259 325;2214 325 331;2224 157 109;2236 337 343;2248 349 355;2258 
DEFINE MATERIAL START
ISOTROPIC ST37
E 21000000
POISSON 0.3
DENSITY 7.8502
G 8076923.07692308
ALPHA 1.17E-05
END DEFINE MATERIAL
MEMBER PROPERTY
1934 2032 2172 2324 2336 2572 2614 2656 2698 2964 3000 3012 4818 TAPERED 0.23 0.0075 0.23 0.24 0.012 0.24 0.012
1946 1978 2000 2054 2224 2300 2348 2710 2796 2818 2840 2942 2976 3024 3036 3058 3102 3194 3354 4232 4764 4776 4842 5080 TAPERED 0.19 0.0065 0.19 0.2 0.01 0.2 0.01
2066 2100 2236 2380 2414 2526 3080 3124 3170 3182 3216 3248 3260 3272 3652 3664 3676 3698 3740 3874 3916 3928 3990 4324 4386 4616 4672 4830 4884 4946 5058 5122 5164 5176 5308 5320 5452 5464 TAPERED 0.2 0.00559999990463257 0.2 0.1 0.0085 0.1 0.0085
2088 2402 TAPERED 0.29 0.0085 0.29 0.3 0.014 0.3 0.014
2258 2312 2722 TAPERED 0.35 0.01 0.35 0.3 0.0175 0.3 0.0175
2538 3386 3398 3410 3422 TAPERED 0.152 0.006 0.152 0.16 0.009 0.16 0.009
2560 2754 2988 3136 3158 3444 3456 3832 TAPERED 0.24 0.00619999980926514 0.24 0.12 0.00980000019073486 0.12 0.00980000019073486
3468 3480 4528 4540 5476 5488 5500 5512 5524 5536 5548 5560 TAPERED 0.18 0.00530000019073486 0.18 0.091 0.008 0.091 0.008
3492 3504 3516 3528 3540 4582 4604 4628 4640 TAPERED 0.16 0.005 0.16 0.082 0.00740000009536743 0.082 0.00740000009536743
CONSTANTS
MATERIAL ST37 MEMB 1934 1946 1978 2000 2032 2054 2066 2088 2100 2172 2224 2236 2258 2300 2312 2324 2336 2348 2380 2402 2414 2526 2538 2560 2572 2614 2656 2698 2710 2722 2754 2796 2818 2840 2942 2964 2976 2988 3000 3012 3024 3036 3058 3080 3102 3124 3136 3158 3170 3182 3194 3216 3248 3260 3272 3354 3386 3398 3410 3422 3444 3456 3468 3480 3492 3504 3516 3528 3540 3652 3664 3676 3698 3740 3832 3874 3
SUPPORTS
529 560 578 608 FIXED BUT MX MY MZ
LOAD 5625 LOADTYPE Dead TITLE D
JOINT LOAD
319 FX 0 FY 0 FZ 0.36 MX 0 MY 0 MZ 0
1496 FX 0 FY 0 FZ -1.31 MX 0 MY 0 MZ 0
MEMBER LOAD
2300 2324 2336 1978 2032 2172 2560 UNI GZ -0.16
2402 3158 3170 3916 4274 UNI GZ -0.05
2572 2614 2656 2698 UNI GZ -0.15
2964 2976 4896 4936 4958 4968 5070 5134 5144 5154 UNI GZ -0.06
3012 3024 3036 3058 3102 3354 3194 3182 4324 UNI GZ -0.13
3444 3456 3468 3480 4662 4684 4694 4704 4714 4724 4734 4744 4754 4788 UNI GZ -0.03
3492 3504 3664 2066 2380 2414 2414 2722 3248 1934 2258 4818 4818 3136 3136 3216 3216 4830 4830 3740 3832 3676 3688 3698 3792 3822 5452 5464 5464 3048 3612 3642 3730 UNI GZ -0.1
1946 3874 UNI GZ -0.2
4386 4764 4764 4764 UNI GZ -0.11
3854 3896 3906 4082 UNI GZ -0.009
LOAD 5909 LOADTYPE Live TITLE L
JOINT LOAD
319 FX 0 FY 0 FZ -0.06 MX 0 MY 0 MZ 0
1496 FX 0 FY 0 FZ -0.18 MX 0 MY 0 MZ 0
MEMBER LOAD
2300 2324 2336 2572 2614 2656 2698 1946 1978 2032 2172 2560 3874 UNI GZ -0.4
2402 UNI GZ -0.125
2964 2976 UNI GZ -0.15
3012 3024 3036 3058 3102 3354 3194 3182 4324 UNI GZ -0.33
3444 3456 3468 3480 4662 4684 4694 4704 4714 4724 4734 4744 4754 4788 3158 3170 3916 UNI GZ -0.13
3492 3504 3740 3832 UNI GZ -0.2
3664 3676 3688 3698 3792 3822 3048 3612 3642 3730 UNI GZ -0.3
2066 2380 2414 2414 2722 3248 1934 2258 4818 4818 3136 3136 3216 3216 4830 4830 4386 4764 4764 4764 5452 5464 5464 UNI GZ -0.25
4274 UNI GZ -0.1
3854 3896 3906 4082 UNI GZ -0.036
LOAD 6169 LOADTYPE Other TITLE WX
JOINT LOAD
319 FX 0 FY 0 FZ -0.14 MX 0 MY 0 MZ 0
1496 FX 0 FY 0 FZ -1.25 MX 0 MY 0 MZ 0
MEMBER LOAD
2594 2604 2646 2668 UNI GX 0.5
2594 2646 UNI GX 0.47
2594 2646 UNI GX 0.44
2594 2646 UNI GX 0.43
2594 2594 2626 2626 UNI GY -0.32
2594 2626 UNI GY -0.34
2594 2604 2626 2636 UNI GY -0.36
2604 2668 UNI GX 0.52
2604 2636 UNI GY -0.38
2626 2678 UNI GX 0.27
2626 2678 UNI GX 0.28
2626 2678 UNI GX 0.29
2626 2636 2678 2688 UNI GX 0.31
2636 2688 UNI GX 0.33
2646 2646 2678 2678 UNI GY 0.32
2646 2678 UNI GY 0.34
2646 2668 2678 2688 UNI GY 0.36
2668 2688 UNI GY 0.38
3854 3896 3906 4082 UNI GZ 0.1
LOAD 6333 LOADTYPE Other TITLE WX-
JOINT LOAD
319 FX 0 FY 0 FZ 0.14 MX 0 MY 0 MZ 0
1496 FX 0 FY 0 FZ 1.25 MX 0 MY 0 MZ 0
MEMBER LOAD
2594 2646 UNI GX -0.27
2594 2646 UNI GX -0.28
2594 2646 UNI GX -0.29
2594 2604 2646 2668 UNI GX -0.31
2594 2594 2626 2626 UNI GY -0.32
2594 2626 UNI GY -0.34
2594 2604 2626 2636 UNI GY -0.36
2604 2668 UNI GX -0.33
2604 2636 UNI GY -0.38
2626 2678 UNI GX -0.43
2626 2678 UNI GX -0.44
2626 2678 UNI GX -0.47
2626 2636 2678 2688 UNI GX -0.5
2636 2688 UNI GX -0.52
2646 2646 2678 2678 UNI GY 0.32
2646 2678 UNI GY 0.34
2646 2668 2678 2688 UNI GY 0.36
2668 2688 UNI GY 0.38
3854 3896 3906 4082 UNI GZ 0.1
LOAD 6497 LOADTYPE Other TITLE WY
JOINT LOAD
319 FX 0 FY 0 FZ 0.63 MX 0 MY 0 MZ 0
1496 FX 0 FY 0 FZ 0.75 MX 0 MY 0 MZ 0
1496 FX -0.97 FY 0 FZ 0 MX 0 MY 0 MZ 0
MEMBER LOAD
2594 2626 UNI GY 0.36
2594 2626 UNI GY 0.37
2594 2626 UNI GY 0.39
2594 2604 2626 2636 UNI GY 0.42
2594 2646 UNI GX -0.38
2594 2646 UNI GX -0.39
2594 2646 UNI GX -0.41
2594 2604 2646 2668 UNI GX -0.44
2604 2636 UNI GY 0.43
2604 2668 UNI GX -0.46
2626 2678 UNI GX 0.38
2626 2678 UNI GX 0.39
2626 2678 UNI GX 0.41
2626 2636 2678 2688 UNI GX 0.44
2636 2688 UNI GX 0.46
2646 2646 2678 2678 UNI GY 0.23
2646 2678 UNI GY 0.24
2646 2668 2678 2688 UNI GY 0.26
2668 2688 UNI GY 0.27
3854 3896 3906 4082 UNI GZ 0.1
LOAD 6664 LOADTYPE Other TITLE WY-
JOINT LOAD
319 FX 0 FY 0 FZ -0.93 MX 0 MY 0 MZ 0
1496 FX 0 FY 0 FZ -0.75 MX 0 MY 0 MZ 0
1496 FX 0.97 FY 0 FZ 0 MX 0 MY 0 MZ 0
MEMBER LOAD
2594 2594 2626 2626 UNI GY -0.23
2594 2626 UNI GY -0.24
2594 2604 2626 2636 UNI GY -0.26
2594 2646 UNI GX -0.38
2594 2646 UNI GX -0.39
2594 2646 UNI GX -0.41
2594 2604 2646 2668 UNI GX -0.44
2604 2636 UNI GY -0.27
2604 2668 UNI GX -0.46
2626 2678 UNI GX 0.38
2626 2678 UNI GX 0.39
2626 2678 UNI GX 0.41
2626 2636 2678 2688 UNI GX 0.44
2636 2688 UNI GX 0.46
2646 2678 UNI GY -0.36
2646 2678 UNI GY -0.37
2646 2678 UNI GY -0.39
2646 2668 2678 2688 UNI GY -0.42
2668 2688 UNI GY -0.43
3854 3896 3906 4082 UNI GZ 0.1
LOAD 6831 LOADTYPE Other TITLE MECH
JOINT LOAD
319 FX 0 FY 0 FZ 2.63 MX 0 MY 0 MZ 0
626 590 1100 1106 FX 0 FY 0 FZ -0.3 MX 0 MY 0 MZ 0
956 FX 0 FY 0 FZ -1.15 MX 0 MY 0 MZ 0
451 457 469 475 FX 0 FY 0 FZ -0.85 MX 0 MY 0 MZ 0
1496 FX 0 FY 0 FZ -1.22 MX 0 MY 0 MZ 0
1496 FX 0 FY 0 FZ -1 MX 0 MY 0 MZ 0
MEMBER LOAD
4764 4842 UNI GZ -0.162
LOAD 6875 LOADTYPE Other TITLE EQX-S
JOINT LOAD
319 FX 0 FY 0 FZ 0.27 MX 0 MY 0 MZ 0
1496 FX 0 FY 0 FZ -0.53 MX 0 MY 0 MZ 0
1496 FX 0 FY -1.38 FZ 0 MX 0 MY 0 MZ 0
LOAD 6886 LOADTYPE Other TITLE EQY-S
JOINT LOAD
319 FX 0 FY 0 FZ 3.28 MX 0 MY 0 MZ 0
1496 FX 0 FY 0 FZ -0.88 MX 0 MY 0 MZ 0
1496 FX 0 FY -2.35 FZ 0 MX 0 MY 0 MZ 0
LOAD 6897 LOADTYPE Other TITLE +T
JOINT LOAD
319 FX 0 FY 0 FZ 5.48 MX 0 MY 0 MZ 0
1496 FX 0 FY 0 FZ 0.04 MX 0 MY 0 MZ 0
1496 FX 0 FY -6.51 FZ 0 MX 0 MY 0 MZ 0
LOAD 6908 LOADTYPE Other TITLE -T
JOINT LOAD
319 FX 0 FY 0 FZ -5.48 MX 0 MY 0 MZ 0
1496 FX 0 FY 0 FZ -0.04 MX 0 MY 0 MZ 0
1496 FX 0 FY 6.51 FZ 0 MX 0 MY 0 MZ 0
LOAD COMB 6919 MASS SOURCE
5625 1 5909 0.5 6831 1 


LOAD COMB 6931 TL ( TOTAL LIVE )
5909 1 6831 1 
LOAD COMB 6937 D+TL
5625 1 
LOAD COMB 6941 D+T
5625 1 6897 1 
LOAD COMB 6947 D-T
5625 1 6908 1 
LOAD COMB 6953 D+TL+T
6897 1 
LOAD COMB 6957 D+TL-T
6908 1 
LOAD COMB 6961 0.6D+WX
5625 0.6 6169 1 
LOAD COMB 6967 0.6D-WX
5625 0.6 6333 1 
LOAD COMB 6973 0.6D+WY
5625 0.6 6497 1 
LOAD COMB 6979 0.6D-WY
5625 0.6 6664 1 
LOAD COMB 6985 D+0.75TL+0.75WX
5625 1 6169 0.75 
LOAD COMB 6991 D+0.75TL-0.75WX
5625 1 6333 0.75 
LOAD COMB 6997 D+0.75TL+0.75WY
5625 1 6497 0.75 
LOAD COMB 7003 D+0.75TL-0.75WY
5625 1 6664 0.75 
LOAD COMB 7009 D+0.75TL+0.525SQX
5625 1 
LOAD COMB 7013 D+0.75TL+0.525SQY
5625 1 

FINISH
