STAAD SPACE
SET z UP
UNIT METER KN
JOINT COORDINATES
1 -9 -6 0;2 -9 -6 3;3 -9 -6 6;4 -9 0 0;5 -9 0 3;6 -9 0 6;7 -9 6 0;8 -9 6 3;9 -9 6 6;10 -3 -6 0;11 -3 -6 3;12 -3 -6 6;13 -3 0 0;14 -3 0 3;15 -3 0 6;16 -3 6 0;17 -3 6 3;18 -3 6 6;19 3 -6 0;20 3 -6 3;21 3 -6 6;22 3 0 0;23 3 0 3;24 3 0 6;25 3 6 0;26 3 6 3;27 3 6 6;28 9 -6 0;29 9 -6 3;30 9 -6 6;31 9 0 0;32 9 0 3;33 9 0 6;34 9 6 0;35 9 6 3;36 9 6 6;37 -7.8 0 6;38 -7.8 1.2 6;39 -9 1.2 6;40 -7.8 2.4 6;41 
MEMBER INCIDENCES
1 1 2;2 2 3;3 4 5;4 5 6;5 7 8;6 8 9;7 10 11;8 11 12;9 13 14;10 14 15;11 16 17;12 17 18;13 19 20;14 20 21;15 22 23;16 23 24;17 25 26;18 26 27;19 28 29;20 29 30;21 31 32;22 32 33;23 34 35;24 35 36;25 2 11;26 3 12;27 11 20;28 12 21;29 20 29;30 21 30;31 5 14;32 6 15;33 14 23;34 15 24;35 23 32;36 24 33;37 8 17;38 9 18;39 17 26;40 18 27;41 26 35;42 27 36;43 2 5;44 3 6;45 5 8;46 6 9;47 11 14;48 12 15;49 
ELEMENT INCIDENCES SHELL
66 6 37 38 39;67 39 38 40 41;68 41 40 42 43;69 43 42 44 45;70 45 44 46 9;71 37 47 48 38;72 38 48 49 40;73 40 49 50 42;74 42 50 51 44;75 44 51 52 46;76 47 53 54 48;77 48 54 55 49;78 49 55 56 50;79 50 56 57 51;80 51 57 58 52;81 53 59 60 54;82 54 60 61 55;83 55 61 62 56;84 56 62 63 57;85 57 63 64 58;86 59 15 65 60;87 60 65 66 61;88 61 66 67 62;89 62 67 68 63;90 63 68 18 64;91 15 69 70 65;92 65 70 71 
ELEMENT PROPERTY
66 67 68 69 70 71 72 73 74 75 76 77 78 79 80 81 82 83 84 85 86 87 88 89 90 91 92 93 94 95 96 97 98 99 100 101 102 103 104 105 106 107 108 109 110 111 112 113 114 115 116 117 118 119 120 121 122 123 124 125 126 127 128 129 130 131 132 133 134 135 136 137 138 139 140 141 142 143 144 145 146 147 148 149 150 151 152 153 154 155 156 157 158 159 160 161 162 163 164 165 166 167 168 169 170 171 172 173 17
DEFINE MATERIAL START
ISOTROPIC A992Fy50
E 199947980
POISSON 0.3
DENSITY 76.972862251931
G 76903069.2307692
ALPHA 1.1699999E-05
ISOTROPIC kareem
E 200000000
POISSON 0.4
DENSITY 50.00000038136
G 71428571.4285714
ALPHA 6E-06
END DEFINE MATERIAL
MEMBER PROPERTY
1 3 5 7 9 11 13 15 17 19 21 23 TAPERED 0.3 0.006 0.3 0.1 0.01 0.1 0.009
2 4 6 8 10 12 14 16 18 20 22 24 PRIS YD 0.5 ZD 0.6
25 26 27 28 29 30 31 32 33 34 35 36 37 38 39 40 41 42 43 44 45 46 47 48 49 50 51 52 53 54 55 56 57 58 PRIS YD 1 ZD 0.2
CONSTANTS
MATERIAL A992Fy50 MEMB 1 3 5 7 9 11 13 15 17 19 21 23 66 67 68 69 70 71 72 73 74 75 76 77 78 79 80 81 82 83 84 85 86 87 88 89 90 91 92 93 94 95 96 97 98 99 100 101 102 103 104 105 106 107 108 109 110 111 112 113 114 115 116 117 118 119 120 121 122 123 124 125 126 127 128 129 130 131 132 133 134 135 136 137 138 139 140 141 142 143 144 145 146 147 148 149 150 151 152 153 154 155 156 157 158 159 160 
MATERIAL kareem MEMB 2 4 6 8 10 12 14 16 18 20 22 24 25 26 27 28 29 30 31 32 33 34 35 36 37 38 39 40 41 42 43 44 45 46 47 48 49 50 51 52 53 54 55 56 57 58
SUPPORTS
1 10 19 28 FIXED
4 13 22 31 FIXED BUT MX MY MZ
7 16 25 34 FIXED BUT FX FY MX MY MZ
LOAD 1 LOADTYPE Dead TITLE DEAD
ELEMENT LOAD
70 PR GY -15
161 PR GY -60
JOINT LOAD
8 FX 10 FY 20 FZ 30 MX 40 MY 50 MZ 60
MEMBER LOAD
38 UNI Z -10
LOAD 2 LOADTYPE Dead TITLE DLOAD
LOAD 3 LOADTYPE Live TITLE LLOAD
ELEMENT LOAD
116 117 118 119 120 121 122 123 124 125 126 127 128 129 130 131 132 133 134 135 136 137 138 139 140 141 142 143 144 145 146 147 148 149 150 151 152 153 154 155 156 157 158 159 160 161 162 163 164 165 PR -50
LOAD COMB 4 FirstCombo
1 1.8 3 2.2 
FINISH
