File C:\Users\Usama\Source\Workspaces\SamcTfs2\TestConversions\first issue+GlobalZLoads -Generated .$2k was saved on m/d/yy at h:mm:ss
 
TABLE:  "ACTIVE DEGREES OF FREEDOM"
   UX=Yes   UY=Yes   UZ=Yes   RX=Yes   RY=Yes   RZ=Yes
 
TABLE:  "ANALYSIS OPTIONS"
   Solver=Advanced   SolverProc=Auto   Force32Bit=No   StiffCase=None   GeomMod=None   HingeOpt="In Elements"
 
TABLE:  "AREA LOADS - UNIFORM"
   Area=70   LoadPat=DEAD   CoordSys=GLOBAL   Dir=Y   UnifLoad=-15
   Area=116   LoadPat=LLOAD   CoordSys=Local   Dir=3   UnifLoad=-50
   Area=117   LoadPat=LLOAD   CoordSys=Local   Dir=3   UnifLoad=-50
   Area=118   LoadPat=LLOAD   CoordSys=Local   Dir=3   UnifLoad=-50
   Area=119   LoadPat=LLOAD   CoordSys=Local   Dir=3   UnifLoad=-50
   Area=120   LoadPat=LLOAD   CoordSys=Local   Dir=3   UnifLoad=-50
   Area=121   LoadPat=LLOAD   CoordSys=Local   Dir=3   UnifLoad=-50
   Area=122   LoadPat=LLOAD   CoordSys=Local   Dir=3   UnifLoad=-50
   Area=123   LoadPat=LLOAD   CoordSys=Local   Dir=3   UnifLoad=-50
   Area=124   LoadPat=LLOAD   CoordSys=Local   Dir=3   UnifLoad=-50
   Area=125   LoadPat=LLOAD   CoordSys=Local   Dir=3   UnifLoad=-50
   Area=126   LoadPat=LLOAD   CoordSys=Local   Dir=3   UnifLoad=-50
   Area=127   LoadPat=LLOAD   CoordSys=Local   Dir=3   UnifLoad=-50
   Area=128   LoadPat=LLOAD   CoordSys=Local   Dir=3   UnifLoad=-50
   Area=129   LoadPat=LLOAD   CoordSys=Local   Dir=3   UnifLoad=-50
   Area=130   LoadPat=LLOAD   CoordSys=Local   Dir=3   UnifLoad=-50
   Area=131   LoadPat=LLOAD   CoordSys=Local   Dir=3   UnifLoad=-50
   Area=132   LoadPat=LLOAD   CoordSys=Local   Dir=3   UnifLoad=-50
   Area=133   LoadPat=LLOAD   CoordSys=Local   Dir=3   UnifLoad=-50
   Area=134   LoadPat=LLOAD   CoordSys=Local   Dir=3   UnifLoad=-50
   Area=135   LoadPat=LLOAD   CoordSys=Local   Dir=3   UnifLoad=-50
# ... 25 like lines cut
   Area=161   LoadPat=DEAD   CoordSys=GLOBAL   Dir="Y Proj"   UnifLoad=-60
   Area=161   LoadPat=LLOAD   CoordSys=Local   Dir=3   UnifLoad=-50
   Area=162   LoadPat=LLOAD   CoordSys=Local   Dir=3   UnifLoad=-50
   Area=163   LoadPat=LLOAD   CoordSys=Local   Dir=3   UnifLoad=-50
   Area=164   LoadPat=LLOAD   CoordSys=Local   Dir=3   UnifLoad=-50
   Area=165   LoadPat=LLOAD   CoordSys=Local   Dir=3   UnifLoad=-50
 
TABLE:  "AREA SECTION ASSIGNMENTS"
   Area=66   Section="A992Fy50 0.250"   MatProp=Default
   Area=67   Section="A992Fy50 0.250"   MatProp=Default
   Area=68   Section="A992Fy50 0.250"   MatProp=Default
   Area=69   Section="A992Fy50 0.250"   MatProp=Default
   Area=70   Section="A992Fy50 0.250"   MatProp=Default
   Area=71   Section="A992Fy50 0.250"   MatProp=Default
   Area=72   Section="A992Fy50 0.250"   MatProp=Default
   Area=73   Section="A992Fy50 0.250"   MatProp=Default
   Area=74   Section="A992Fy50 0.250"   MatProp=Default
   Area=75   Section="A992Fy50 0.250"   MatProp=Default
   Area=76   Section="A992Fy50 0.250"   MatProp=Default
   Area=77   Section="A992Fy50 0.250"   MatProp=Default
   Area=78   Section="A992Fy50 0.250"   MatProp=Default
   Area=79   Section="A992Fy50 0.250"   MatProp=Default
   Area=80   Section="A992Fy50 0.250"   MatProp=Default
   Area=81   Section="A992Fy50 0.250"   MatProp=Default
   Area=82   Section="A992Fy50 0.250"   MatProp=Default
   Area=83   Section="A992Fy50 0.250"   MatProp=Default
   Area=84   Section="A992Fy50 0.250"   MatProp=Default
   Area=85   Section="A992Fy50 0.250"   MatProp=Default
# ... 130 like lines cut
 
TABLE:  "AREA SECTION PROPERTIES"
   Section="A992Fy50 0.250"   Material=A992Fy50   MatAngle=0   AreaType=Shell   Type=Shell-Thick   DrillDOF=Yes   Thickness=0.25   BendThick=0.25   Color=Magenta   F11Mod=1   F22Mod=1   F12Mod=1   M11Mod=1   M22Mod=1   M12Mod=1   V13Mod=1 _
        V23Mod=1   MMod=1   WMod=1   GUID=8069411c-2e1f-45ce-8de0-2173a225d6f8
 
TABLE:  "AREA SECTION PROPERTY DESIGN PARAMETERS"
   Section="A992Fy50 0.250"   RebarMat=None   RebarOpt=Default
 
TABLE:  "AREA SECTION PROPERTY - TIME DEPENDENT"
   Section="A992Fy50 0.250"   TypeSize=Auto   AutoSFSize=1
 
TABLE:  "AUTO WAVE 3 - WAVE CHARACTERISTICS - GENERAL"
   WaveChar=Default   WaveType="From Theory"   KinFactor=1   SWaterDepth=45   WaveHeight=18   WavePeriod=12   WaveTheory=Linear
 
TABLE:  "CASE - MODAL 1 - GENERAL"
   Case=MODAL   ModeType=Eigen   MaxNumModes=12   MinNumModes=1   EigenShift=0   EigenCutoff=0   EigenTol=1E-09   AutoShift=Yes
 
TABLE:  "CASE - STATIC 1 - LOAD ASSIGNMENTS"
   Case=DEAD   LoadType="Load pattern"   LoadName=DEAD   LoadSF=1
   Case=DLOAD   LoadType="Load pattern"   LoadName=DLOAD   LoadSF=1
   Case=LLOAD   LoadType="Load pattern"   LoadName=LLOAD   LoadSF=1
 
TABLE:  "COMBINATION DEFINITIONS"
   ComboName=FirstCombo   ComboType="Linear Add"   AutoDesign=No   CaseName=DEAD   ScaleFactor=1.8   SteelDesign=None   ConcDesign=None   AlumDesign=None   ColdDesign=None   GUID=f330bdc7-0128-472c-8369-916ccad1efb3
   ComboName=FirstCombo   CaseName=LLOAD   ScaleFactor=2.2
 
TABLE:  "CONNECTIVITY - AREA"
   Area=66   Joint1=6   Joint2=37   Joint3=38   Joint4=39
   Area=67   Joint1=39   Joint2=38   Joint3=40   Joint4=41
   Area=68   Joint1=41   Joint2=40   Joint3=42   Joint4=43
   Area=69   Joint1=43   Joint2=42   Joint3=44   Joint4=45
   Area=70   Joint1=45   Joint2=44   Joint3=46   Joint4=9
   Area=71   Joint1=37   Joint2=47   Joint3=48   Joint4=38
   Area=72   Joint1=38   Joint2=48   Joint3=49   Joint4=40
   Area=73   Joint1=40   Joint2=49   Joint3=50   Joint4=42
   Area=74   Joint1=42   Joint2=50   Joint3=51   Joint4=44
   Area=75   Joint1=44   Joint2=51   Joint3=52   Joint4=46
   Area=76   Joint1=47   Joint2=53   Joint3=54   Joint4=48
   Area=77   Joint1=48   Joint2=54   Joint3=55   Joint4=49
   Area=78   Joint1=49   Joint2=55   Joint3=56   Joint4=50
   Area=79   Joint1=50   Joint2=56   Joint3=57   Joint4=51
   Area=80   Joint1=51   Joint2=57   Joint3=58   Joint4=52
   Area=81   Joint1=53   Joint2=59   Joint3=60   Joint4=54
   Area=82   Joint1=54   Joint2=60   Joint3=61   Joint4=55
   Area=83   Joint1=55   Joint2=61   Joint3=62   Joint4=56
   Area=84   Joint1=56   Joint2=62   Joint3=63   Joint4=57
   Area=85   Joint1=57   Joint2=63   Joint3=64   Joint4=58
# ... 130 like lines cut
 
TABLE:  "CONNECTIVITY - FRAME"
   Frame=1   JointI=1   JointJ=2   IsCurved=No
   Frame=2   JointI=2   JointJ=3   IsCurved=No
   Frame=3   JointI=4   JointJ=5   IsCurved=No
   Frame=4   JointI=5   JointJ=6   IsCurved=No
   Frame=5   JointI=7   JointJ=8   IsCurved=No
   Frame=6   JointI=8   JointJ=9   IsCurved=No
   Frame=7   JointI=10   JointJ=11   IsCurved=No
   Frame=8   JointI=11   JointJ=12   IsCurved=No
   Frame=9   JointI=13   JointJ=14   IsCurved=No
   Frame=10   JointI=14   JointJ=15   IsCurved=No
   Frame=11   JointI=16   JointJ=17   IsCurved=No
   Frame=12   JointI=17   JointJ=18   IsCurved=No
   Frame=13   JointI=19   JointJ=20   IsCurved=No
   Frame=14   JointI=20   JointJ=21   IsCurved=No
   Frame=15   JointI=22   JointJ=23   IsCurved=No
   Frame=16   JointI=23   JointJ=24   IsCurved=No
   Frame=17   JointI=25   JointJ=26   IsCurved=No
   Frame=18   JointI=26   JointJ=27   IsCurved=No
   Frame=19   JointI=28   JointJ=29   IsCurved=No
   Frame=20   JointI=29   JointJ=30   IsCurved=No
# ... 38 like lines cut
 
TABLE:  "COORDINATE SYSTEMS"
   Name=GLOBAL   Type=Cartesian   X=0   Y=0   Z=0   AboutZ=0   AboutY=0   AboutX=0
 
TABLE:  "DATABASE DOCUMENTATION"
 
TABLE:  "DATABASE FORMAT TYPES"
   UnitsCurr=Yes   OverrideE=No
 
TABLE:  "FRAME AUTO MESH ASSIGNMENTS"
   Frame=1   AutoMesh=Yes   AtJoints=Yes   AtFrames=No   NumSegments=0   MaxLength=0   MaxDegrees=0
   Frame=2   AutoMesh=Yes   AtJoints=Yes   AtFrames=No   NumSegments=0   MaxLength=0   MaxDegrees=0
   Frame=3   AutoMesh=Yes   AtJoints=Yes   AtFrames=No   NumSegments=0   MaxLength=0   MaxDegrees=0
   Frame=4   AutoMesh=Yes   AtJoints=Yes   AtFrames=No   NumSegments=0   MaxLength=0   MaxDegrees=0
   Frame=5   AutoMesh=Yes   AtJoints=Yes   AtFrames=No   NumSegments=0   MaxLength=0   MaxDegrees=0
   Frame=6   AutoMesh=Yes   AtJoints=Yes   AtFrames=No   NumSegments=0   MaxLength=0   MaxDegrees=0
   Frame=7   AutoMesh=Yes   AtJoints=Yes   AtFrames=No   NumSegments=0   MaxLength=0   MaxDegrees=0
   Frame=8   AutoMesh=Yes   AtJoints=Yes   AtFrames=No   NumSegments=0   MaxLength=0   MaxDegrees=0
   Frame=9   AutoMesh=Yes   AtJoints=Yes   AtFrames=No   NumSegments=0   MaxLength=0   MaxDegrees=0
   Frame=10   AutoMesh=Yes   AtJoints=Yes   AtFrames=No   NumSegments=0   MaxLength=0   MaxDegrees=0
   Frame=11   AutoMesh=Yes   AtJoints=Yes   AtFrames=No   NumSegments=0   MaxLength=0   MaxDegrees=0
   Frame=12   AutoMesh=Yes   AtJoints=Yes   AtFrames=No   NumSegments=0   MaxLength=0   MaxDegrees=0
   Frame=13   AutoMesh=Yes   AtJoints=Yes   AtFrames=No   NumSegments=0   MaxLength=0   MaxDegrees=0
   Frame=14   AutoMesh=Yes   AtJoints=Yes   AtFrames=No   NumSegments=0   MaxLength=0   MaxDegrees=0
   Frame=15   AutoMesh=Yes   AtJoints=Yes   AtFrames=No   NumSegments=0   MaxLength=0   MaxDegrees=0
   Frame=16   AutoMesh=Yes   AtJoints=Yes   AtFrames=No   NumSegments=0   MaxLength=0   MaxDegrees=0
   Frame=17   AutoMesh=Yes   AtJoints=Yes   AtFrames=No   NumSegments=0   MaxLength=0   MaxDegrees=0
   Frame=18   AutoMesh=Yes   AtJoints=Yes   AtFrames=No   NumSegments=0   MaxLength=0   MaxDegrees=0
   Frame=19   AutoMesh=Yes   AtJoints=Yes   AtFrames=No   NumSegments=0   MaxLength=0   MaxDegrees=0
   Frame=20   AutoMesh=Yes   AtJoints=Yes   AtFrames=No   NumSegments=0   MaxLength=0   MaxDegrees=0
# ... 38 like lines cut
 
TABLE:  "FRAME DESIGN PROCEDURES"
   Frame=1   DesignProc="From Material"
   Frame=2   DesignProc="No Design"
   Frame=3   DesignProc="From Material"
   Frame=4   DesignProc="No Design"
   Frame=5   DesignProc="From Material"
   Frame=6   DesignProc="No Design"
   Frame=7   DesignProc="From Material"
   Frame=8   DesignProc="No Design"
   Frame=9   DesignProc="From Material"
   Frame=10   DesignProc="No Design"
   Frame=11   DesignProc="From Material"
   Frame=12   DesignProc="No Design"
   Frame=13   DesignProc="From Material"
   Frame=14   DesignProc="No Design"
   Frame=15   DesignProc="From Material"
   Frame=16   DesignProc="No Design"
   Frame=17   DesignProc="From Material"
   Frame=18   DesignProc="No Design"
   Frame=19   DesignProc="From Material"
   Frame=20   DesignProc="No Design"
   Frame=21   DesignProc="From Material"
   Frame=22   DesignProc="No Design"
   Frame=23   DesignProc="From Material"
   Frame=24   DesignProc="No Design"
   Frame=25   DesignProc="No Design"
   Frame=26   DesignProc="No Design"
   Frame=27   DesignProc="No Design"
   Frame=28   DesignProc="No Design"
   Frame=29   DesignProc="No Design"
   Frame=30   DesignProc="No Design"
   Frame=31   DesignProc="No Design"
   Frame=32   DesignProc="No Design"
   Frame=33   DesignProc="No Design"
   Frame=34   DesignProc="No Design"
   Frame=35   DesignProc="No Design"
   Frame=36   DesignProc="No Design"
   Frame=37   DesignProc="No Design"
   Frame=38   DesignProc="No Design"
   Frame=39   DesignProc="No Design"
   Frame=40   DesignProc="No Design"
   Frame=41   DesignProc="No Design"
   Frame=42   DesignProc="No Design"
   Frame=43   DesignProc="No Design"
# ... 15 like lines cut
 
TABLE:  "FRAME LOADS - DISTRIBUTED"
   Frame=38   LoadPat=DEAD   CoordSys=Local   Type=Force   Dir=2   DistType=RelDist   RelDistA=0   RelDistB=1   AbsDistA=0   AbsDistB=6   FOverLA=-10   FOverLB=-10
 
TABLE:  "FRAME LOAD TRANSFER OPTIONS"
   Frame=1   Transfer=Yes
   Frame=2   Transfer=Yes
   Frame=3   Transfer=Yes
   Frame=4   Transfer=Yes
   Frame=5   Transfer=Yes
   Frame=6   Transfer=Yes
   Frame=7   Transfer=Yes
   Frame=8   Transfer=Yes
   Frame=9   Transfer=Yes
   Frame=10   Transfer=Yes
   Frame=11   Transfer=Yes
   Frame=12   Transfer=Yes
   Frame=13   Transfer=Yes
   Frame=14   Transfer=Yes
   Frame=15   Transfer=Yes
   Frame=16   Transfer=Yes
   Frame=17   Transfer=Yes
   Frame=18   Transfer=Yes
   Frame=19   Transfer=Yes
   Frame=20   Transfer=Yes
# ... 38 like lines cut
 
TABLE:  "FRAME OUTPUT STATION ASSIGNMENTS"
   Frame=1   StationType=MinNumSta   MinNumSta=3   AddAtElmInt=Yes   AddAtPtLoad=Yes
   Frame=2   StationType=MinNumSta   MinNumSta=3   AddAtElmInt=Yes   AddAtPtLoad=Yes
   Frame=3   StationType=MinNumSta   MinNumSta=3   AddAtElmInt=Yes   AddAtPtLoad=Yes
   Frame=4   StationType=MinNumSta   MinNumSta=3   AddAtElmInt=Yes   AddAtPtLoad=Yes
   Frame=5   StationType=MinNumSta   MinNumSta=3   AddAtElmInt=Yes   AddAtPtLoad=Yes
   Frame=6   StationType=MinNumSta   MinNumSta=3   AddAtElmInt=Yes   AddAtPtLoad=Yes
   Frame=7   StationType=MinNumSta   MinNumSta=3   AddAtElmInt=Yes   AddAtPtLoad=Yes
   Frame=8   StationType=MinNumSta   MinNumSta=3   AddAtElmInt=Yes   AddAtPtLoad=Yes
   Frame=9   StationType=MinNumSta   MinNumSta=3   AddAtElmInt=Yes   AddAtPtLoad=Yes
   Frame=10   StationType=MinNumSta   MinNumSta=3   AddAtElmInt=Yes   AddAtPtLoad=Yes
   Frame=11   StationType=MinNumSta   MinNumSta=3   AddAtElmInt=Yes   AddAtPtLoad=Yes
   Frame=12   StationType=MinNumSta   MinNumSta=3   AddAtElmInt=Yes   AddAtPtLoad=Yes
   Frame=13   StationType=MinNumSta   MinNumSta=3   AddAtElmInt=Yes   AddAtPtLoad=Yes
   Frame=14   StationType=MinNumSta   MinNumSta=3   AddAtElmInt=Yes   AddAtPtLoad=Yes
   Frame=15   StationType=MinNumSta   MinNumSta=3   AddAtElmInt=Yes   AddAtPtLoad=Yes
   Frame=16   StationType=MinNumSta   MinNumSta=3   AddAtElmInt=Yes   AddAtPtLoad=Yes
   Frame=17   StationType=MinNumSta   MinNumSta=3   AddAtElmInt=Yes   AddAtPtLoad=Yes
   Frame=18   StationType=MinNumSta   MinNumSta=3   AddAtElmInt=Yes   AddAtPtLoad=Yes
   Frame=19   StationType=MinNumSta   MinNumSta=3   AddAtElmInt=Yes   AddAtPtLoad=Yes
   Frame=20   StationType=MinNumSta   MinNumSta=3   AddAtElmInt=Yes   AddAtPtLoad=Yes
# ... 4 like lines cut
   Frame=25   StationType=MaxStaSpcg   MaxStaSpcg=0.5   AddAtElmInt=Yes   AddAtPtLoad=Yes
   Frame=26   StationType=MaxStaSpcg   MaxStaSpcg=0.5   AddAtElmInt=Yes   AddAtPtLoad=Yes
   Frame=27   StationType=MaxStaSpcg   MaxStaSpcg=0.5   AddAtElmInt=Yes   AddAtPtLoad=Yes
   Frame=28   StationType=MaxStaSpcg   MaxStaSpcg=0.5   AddAtElmInt=Yes   AddAtPtLoad=Yes
   Frame=29   StationType=MaxStaSpcg   MaxStaSpcg=0.5   AddAtElmInt=Yes   AddAtPtLoad=Yes
   Frame=30   StationType=MaxStaSpcg   MaxStaSpcg=0.5   AddAtElmInt=Yes   AddAtPtLoad=Yes
   Frame=31   StationType=MaxStaSpcg   MaxStaSpcg=0.5   AddAtElmInt=Yes   AddAtPtLoad=Yes
   Frame=32   StationType=MaxStaSpcg   MaxStaSpcg=0.5   AddAtElmInt=Yes   AddAtPtLoad=Yes
   Frame=33   StationType=MaxStaSpcg   MaxStaSpcg=0.5   AddAtElmInt=Yes   AddAtPtLoad=Yes
   Frame=34   StationType=MaxStaSpcg   MaxStaSpcg=0.5   AddAtElmInt=Yes   AddAtPtLoad=Yes
   Frame=35   StationType=MaxStaSpcg   MaxStaSpcg=0.5   AddAtElmInt=Yes   AddAtPtLoad=Yes
   Frame=36   StationType=MaxStaSpcg   MaxStaSpcg=0.5   AddAtElmInt=Yes   AddAtPtLoad=Yes
   Frame=37   StationType=MaxStaSpcg   MaxStaSpcg=0.5   AddAtElmInt=Yes   AddAtPtLoad=Yes
   Frame=38   StationType=MaxStaSpcg   MaxStaSpcg=0.5   AddAtElmInt=Yes   AddAtPtLoad=Yes
   Frame=39   StationType=MaxStaSpcg   MaxStaSpcg=0.5   AddAtElmInt=Yes   AddAtPtLoad=Yes
   Frame=40   StationType=MaxStaSpcg   MaxStaSpcg=0.5   AddAtElmInt=Yes   AddAtPtLoad=Yes
   Frame=41   StationType=MaxStaSpcg   MaxStaSpcg=0.5   AddAtElmInt=Yes   AddAtPtLoad=Yes
   Frame=42   StationType=MaxStaSpcg   MaxStaSpcg=0.5   AddAtElmInt=Yes   AddAtPtLoad=Yes
   Frame=43   StationType=MaxStaSpcg   MaxStaSpcg=0.5   AddAtElmInt=Yes   AddAtPtLoad=Yes
   Frame=44   StationType=MaxStaSpcg   MaxStaSpcg=0.5   AddAtElmInt=Yes   AddAtPtLoad=Yes
# ... 14 like lines cut
 
TABLE:  "FRAME SECTION ASSIGNMENTS"
   Frame=1   AutoSelect=N.A.   AnalSect="I beam"   MatProp=Default
   Frame=2   AutoSelect=N.A.   AnalSect=C50x50   MatProp=Default
   Frame=3   AutoSelect=N.A.   AnalSect="I beam"   MatProp=Default
   Frame=4   AutoSelect=N.A.   AnalSect=C50x50   MatProp=Default
   Frame=5   AutoSelect=N.A.   AnalSect="I beam"   MatProp=Default
   Frame=6   AutoSelect=N.A.   AnalSect=C50x50   MatProp=Default
   Frame=7   AutoSelect=N.A.   AnalSect="I beam"   MatProp=Default
   Frame=8   AutoSelect=N.A.   AnalSect=C50x50   MatProp=Default
   Frame=9   AutoSelect=N.A.   AnalSect="I beam"   MatProp=Default
   Frame=10   AutoSelect=N.A.   AnalSect=C50x50   MatProp=Default
   Frame=11   AutoSelect=N.A.   AnalSect="I beam"   MatProp=Default
   Frame=12   AutoSelect=N.A.   AnalSect=C50x50   MatProp=Default
   Frame=13   AutoSelect=N.A.   AnalSect="I beam"   MatProp=Default
   Frame=14   AutoSelect=N.A.   AnalSect=C50x50   MatProp=Default
   Frame=15   AutoSelect=N.A.   AnalSect="I beam"   MatProp=Default
   Frame=16   AutoSelect=N.A.   AnalSect=C50x50   MatProp=Default
   Frame=17   AutoSelect=N.A.   AnalSect="I beam"   MatProp=Default
   Frame=18   AutoSelect=N.A.   AnalSect=C50x50   MatProp=Default
   Frame=19   AutoSelect=N.A.   AnalSect="I beam"   MatProp=Default
   Frame=20   AutoSelect=N.A.   AnalSect=C50x50   MatProp=Default
   Frame=21   AutoSelect=N.A.   AnalSect="I beam"   MatProp=Default
   Frame=22   AutoSelect=N.A.   AnalSect=C50x50   MatProp=Default
   Frame=23   AutoSelect=N.A.   AnalSect="I beam"   MatProp=Default
   Frame=24   AutoSelect=N.A.   AnalSect=C50x50   MatProp=Default
   Frame=25   AutoSelect=N.A.   AnalSect=B100x20   MatProp=Default
   Frame=26   AutoSelect=N.A.   AnalSect=B100x20   MatProp=Default
   Frame=27   AutoSelect=N.A.   AnalSect=B100x20   MatProp=Default
   Frame=28   AutoSelect=N.A.   AnalSect=B100x20   MatProp=Default
   Frame=29   AutoSelect=N.A.   AnalSect=B100x20   MatProp=Default
   Frame=30   AutoSelect=N.A.   AnalSect=B100x20   MatProp=Default
   Frame=31   AutoSelect=N.A.   AnalSect=B100x20   MatProp=Default
   Frame=32   AutoSelect=N.A.   AnalSect=B100x20   MatProp=Default
   Frame=33   AutoSelect=N.A.   AnalSect=B100x20   MatProp=Default
   Frame=34   AutoSelect=N.A.   AnalSect=B100x20   MatProp=Default
   Frame=35   AutoSelect=N.A.   AnalSect=B100x20   MatProp=Default
   Frame=36   AutoSelect=N.A.   AnalSect=B100x20   MatProp=Default
   Frame=37   AutoSelect=N.A.   AnalSect=B100x20   MatProp=Default
   Frame=38   AutoSelect=N.A.   AnalSect=B100x20   MatProp=Default
   Frame=39   AutoSelect=N.A.   AnalSect=B100x20   MatProp=Default
   Frame=40   AutoSelect=N.A.   AnalSect=B100x20   MatProp=Default
   Frame=41   AutoSelect=N.A.   AnalSect=B100x20   MatProp=Default
   Frame=42   AutoSelect=N.A.   AnalSect=B100x20   MatProp=Default
   Frame=43   AutoSelect=N.A.   AnalSect=B100x20   MatProp=Default
   Frame=44   AutoSelect=N.A.   AnalSect=B100x20   MatProp=Default
# ... 14 like lines cut
 
TABLE:  "FRAME SECTION PROPERTIES 01 - GENERAL"
   SectionName=B100x20   Material=kareem   Shape=Rectangular   t3=1   t2=0.2   Area=0.2   TorsConst=0.00233071146666667   I33=0.0166666666666667   I22=0.000666666666666667   I23=0   AS2=0.166666666666667   AS3=0.166666666666667 _
        S33=0.0333333333333333   S22=0.00666666666666667   Z33=0.05   Z22=0.01   R33=0.288675134594813   R22=0.0577350269189626   Color=Green   FromFile=No   AMod=1   A2Mod=1   A3Mod=1   JMod=1   I2Mod=1   I3Mod=1   MMod=1   WMod=1   Notes="Added 29/03/2018 07:13:03 ุต"
   SectionName=C50x50   Material=kareem   Shape=Rectangular   t3=0.5   t2=0.6   Area=0.3   TorsConst=0.0124024643132716   I33=0.00625   I22=0.009   I23=0   AS2=0.25   AS3=0.25   S33=0.025   S22=0.03   Z33=0.0375   Z22=0.045 _
        R33=0.144337567297406   R22=0.173205080756888   Color=Gray8Dark   FromFile=No   AMod=1   A2Mod=1   A3Mod=1   JMod=1   I2Mod=1   I3Mod=1   MMod=1   WMod=1   Notes="Added 29/03/2018 07:13:03 ุต"
   SectionName="I beam"   Material=A992Fy50   Shape="I/Wide Flange"   t3=0.3   t2=0.1   tf=0.01   tw=0.006   t2b=0.1   tfb=0.009   Area=0.003586   TorsConst=7.41153633333333E-08   I33=5.11384348288715E-05   I22=1.58839133333333E-06   I23=0 _
        AS2=0.0018   AS3=0.00158333333333333   S33=0.000332752854339236   S22=3.17678266666667E-05   Z33=0.000394024833333333   Z22=5.0029E-05   R33=0.119417664486587   R22=0.021046196057007   Color=Magenta   FromFile=No   AMod=1   A2Mod=1 _
        A3Mod=1   JMod=1   I2Mod=1   I3Mod=1   MMod=1   WMod=1   Notes="Added 29/03/2018 07:13:03 ุต"
 
TABLE:  "FRAME SECTION PROPERTIES 13 - TIME DEPENDENT"
   SectionName=B100x20   TypeSize=Auto   AutoSFSize=1
   SectionName=C50x50   TypeSize=Auto   AutoSFSize=1
   SectionName="I beam"   TypeSize=Auto   AutoSFSize=1
 
TABLE:  "FUNCTION - PLOT FUNCTIONS"
   PlotFunc="Input Energy"   Type=Energy   Component=Input   Mode=All
 
TABLE:  "GRID LINES"
   CoordSys=GLOBAL   AxisDir=X   XRYZCoord=-9   LineType=Primary   LineColor=Gray8Dark   Visible=Yes   BubbleLoc=End   AllVisible=Yes   BubbleSize=1
   CoordSys=GLOBAL   AxisDir=X   XRYZCoord=0   LineType=Primary   LineColor=Gray8Dark   Visible=Yes   BubbleLoc=End
   CoordSys=GLOBAL   AxisDir=X   XRYZCoord=9   LineType=Primary   LineColor=Gray8Dark   Visible=Yes   BubbleLoc=End
   CoordSys=GLOBAL   AxisDir=Y   XRYZCoord=-6   LineType=Primary   LineColor=Gray8Dark   Visible=Yes   BubbleLoc=End
   CoordSys=GLOBAL   AxisDir=Y   XRYZCoord=0   LineType=Primary   LineColor=Gray8Dark   Visible=Yes   BubbleLoc=End
   CoordSys=GLOBAL   AxisDir=Y   XRYZCoord=6   LineType=Primary   LineColor=Gray8Dark   Visible=Yes   BubbleLoc=End
   CoordSys=GLOBAL   AxisDir=Z   XRYZCoord=0   LineType=Primary   LineColor=Gray8Dark   Visible=Yes   BubbleLoc=End
   CoordSys=GLOBAL   AxisDir=Z   XRYZCoord=6   LineType=Primary   LineColor=Gray8Dark   Visible=Yes   BubbleLoc=End
 
TABLE:  "GROUPS 1 - DEFINITIONS"
   GroupName=ALL   Selection=Yes   SectionCut=Yes   Steel=Yes   Concrete=Yes   Aluminum=Yes   ColdFormed=Yes   Stage=Yes   Bridge=Yes   AutoSeismic=No   AutoWind=No   SelDesSteel=No   SelDesAlum=No   SelDesCold=No   MassWeight=Yes   Color=Red
 
TABLE:  "JOINT COORDINATES"
   Joint=1   CoordSys=GLOBAL   CoordType=Cartesian   XorR=-9   Y=-6   Z=0   SpecialJt=Yes
   Joint=2   CoordSys=GLOBAL   CoordType=Cartesian   XorR=-9   Y=-6   Z=3   SpecialJt=Yes
   Joint=3   CoordSys=GLOBAL   CoordType=Cartesian   XorR=-9   Y=-6   Z=6   SpecialJt=Yes
   Joint=4   CoordSys=GLOBAL   CoordType=Cartesian   XorR=-9   Y=0   Z=0   SpecialJt=Yes
   Joint=5   CoordSys=GLOBAL   CoordType=Cartesian   XorR=-9   Y=0   Z=3   SpecialJt=Yes
   Joint=6   CoordSys=GLOBAL   CoordType=Cartesian   XorR=-9   Y=0   Z=6   SpecialJt=Yes
   Joint=7   CoordSys=GLOBAL   CoordType=Cartesian   XorR=-9   Y=6   Z=0   SpecialJt=Yes
   Joint=8   CoordSys=GLOBAL   CoordType=Cartesian   XorR=-9   Y=6   Z=3   SpecialJt=Yes
   Joint=9   CoordSys=GLOBAL   CoordType=Cartesian   XorR=-9   Y=6   Z=6   SpecialJt=Yes
   Joint=10   CoordSys=GLOBAL   CoordType=Cartesian   XorR=-3   Y=-6   Z=0   SpecialJt=Yes
   Joint=11   CoordSys=GLOBAL   CoordType=Cartesian   XorR=-3   Y=-6   Z=3   SpecialJt=Yes
   Joint=12   CoordSys=GLOBAL   CoordType=Cartesian   XorR=-3   Y=-6   Z=6   SpecialJt=Yes
   Joint=13   CoordSys=GLOBAL   CoordType=Cartesian   XorR=-3   Y=0   Z=0   SpecialJt=Yes
   Joint=14   CoordSys=GLOBAL   CoordType=Cartesian   XorR=-3   Y=0   Z=3   SpecialJt=Yes
   Joint=15   CoordSys=GLOBAL   CoordType=Cartesian   XorR=-3   Y=0   Z=6   SpecialJt=Yes
   Joint=16   CoordSys=GLOBAL   CoordType=Cartesian   XorR=-3   Y=6   Z=0   SpecialJt=Yes
   Joint=17   CoordSys=GLOBAL   CoordType=Cartesian   XorR=-3   Y=6   Z=3   SpecialJt=Yes
   Joint=18   CoordSys=GLOBAL   CoordType=Cartesian   XorR=-3   Y=6   Z=6   SpecialJt=Yes
   Joint=19   CoordSys=GLOBAL   CoordType=Cartesian   XorR=3   Y=-6   Z=0   SpecialJt=Yes
   Joint=20   CoordSys=GLOBAL   CoordType=Cartesian   XorR=3   Y=-6   Z=3   SpecialJt=Yes
# ... 180 like lines cut
 
TABLE:  "JOINT LOADS - FORCE"
   Joint=8   LoadPat=DEAD   CoordSys=GLOBAL   F1=10   F2=20   F3=30   M1=40   M2=50   M3=60
 
TABLE:  "JOINT PATTERN DEFINITIONS"
   Pattern=Default
 
TABLE:  "JOINT RESTRAINT ASSIGNMENTS"
   Joint=1   U1=Yes   U2=Yes   U3=Yes   R1=Yes   R2=Yes   R3=Yes
   Joint=4   U1=Yes   U2=Yes   U3=Yes   R1=No   R2=No   R3=No
   Joint=7   U1=No   U2=No   U3=Yes   R1=No   R2=No   R3=No
   Joint=10   U1=Yes   U2=Yes   U3=Yes   R1=Yes   R2=Yes   R3=Yes
   Joint=13   U1=Yes   U2=Yes   U3=Yes   R1=No   R2=No   R3=No
   Joint=16   U1=No   U2=No   U3=Yes   R1=No   R2=No   R3=No
   Joint=19   U1=Yes   U2=Yes   U3=Yes   R1=Yes   R2=Yes   R3=Yes
   Joint=22   U1=Yes   U2=Yes   U3=Yes   R1=No   R2=No   R3=No
   Joint=25   U1=No   U2=No   U3=Yes   R1=No   R2=No   R3=No
   Joint=28   U1=Yes   U2=Yes   U3=Yes   R1=Yes   R2=Yes   R3=Yes
   Joint=31   U1=Yes   U2=Yes   U3=Yes   R1=No   R2=No   R3=No
   Joint=34   U1=No   U2=No   U3=Yes   R1=No   R2=No   R3=No
 
TABLE:  "LOAD CASE DEFINITIONS"
   Case=DEAD   Type=LinStatic   InitialCond=Zero   DesTypeOpt="Prog Det"   DesignType=Dead   DesActOpt="Prog Det"   DesignAct=Non-Composite   AutoType=None   RunCase=Yes   GUID=ca0b4bdc-7fd8-4723-982a-0d072a1a9343
   Case=DLOAD   Type=LinStatic   InitialCond=Zero   DesTypeOpt="Prog Det"   DesignType=Dead   DesActOpt="Prog Det"   DesignAct=Non-Composite   AutoType=None   RunCase=Yes   GUID=878c82fa-e8f1-4101-a10a-bafc0eff80c8
   Case=LLOAD   Type=LinStatic   InitialCond=Zero   DesTypeOpt="Prog Det"   DesignType=Live   DesActOpt="Prog Det"   DesignAct="Short-Term Composite"   AutoType=None   RunCase=Yes   GUID=bea505e5-7422-4f6b-85b2-dcb2eb321946
   Case=MODAL   Type=LinModal   InitialCond=Zero   DesTypeOpt="Prog Det"   DesignType=Other   DesActOpt="Prog Det"   DesignAct=Other   AutoType=None   RunCase=Yes   GUID=7c6152ef-0d84-46df-9472-d92a807fee69
 
TABLE:  "LOAD PATTERN DEFINITIONS"
   LoadPat=DEAD   DesignType=Dead   SelfWtMult=1   GUID=6b87a6cd-db5e-45c3-a72d-3045963ae1ce
   LoadPat=DLOAD   DesignType=Dead   SelfWtMult=1   GUID=a16237b4-45d0-412a-a820-35a60e8637ad
   LoadPat=LLOAD   DesignType=Live   SelfWtMult=0   GUID=49c6cab6-659d-4cde-81a5-9fb73b9805c7
 
TABLE:  "MASS SOURCE"
   MassSource=MSSSRC1   Elements=Yes   Masses=Yes   Loads=No   IsDefault=Yes
 
TABLE:  "MATERIAL PROPERTIES 01 - GENERAL"
   Material=4000Psi   Type=Concrete   SymType=Isotropic   TempDepend=No   Color=Yellow   Notes="Customary f'c 4000 psi 29/03/2018 07:13:03 ุต"
   Material=A416Gr270   Type=Tendon   SymType=Uniaxial   TempDepend=No   Color=Red   Notes="ASTM A416 Grade 270 29/03/2018 07:13:03 ุต"
   Material=A992Fy50   Type=Steel   SymType=Isotropic   TempDepend=No   Color=Blue   Notes="ASTM A992 Grade 50 29/03/2018 07:13:03 ุต"
   Material=kareem   Type=Other   SymType=Isotropic   TempDepend=No   Color=Cyan   Notes="MAT added 29/03/2018 07:13:03 ุต"
 
TABLE:  "MATERIAL PROPERTIES 02 - BASIC MECHANICAL PROPERTIES"
   Material=4000Psi   UnitWeight=23.5631216161854   UnitMass=2.40276960558926   E1=24855578.0600518   G12=10356490.8583549   U12=0.2   A1=9.89999952793124E-06
   Material=A416Gr270   UnitWeight=76.9728639422648   UnitMass=7.84904737995992   E1=196500599.8512   A1=1.16999994421006E-05
   Material=A992Fy50   UnitWeight=76.972862251931   UnitMass=7.849   E1=199947980   G12=76903069.2307692   U12=0.3   A1=1.1699999E-05
   Material=kareem   UnitWeight=50.00000038136   UnitMass=5.0986   E1=200000000   G12=71428571.4285714   U12=0.4   A1=6E-06
 
TABLE:  "MATERIAL PROPERTIES 03A - STEEL DATA"
   Material=A992Fy50   Fy=344737.894475789   Fu=448159.262818526   EffFy=379211.683923368   EffFu=492975.189100378   SSCurveOpt=Simple   SSHysType=Kinematic   SHard=0.015   SMax=0.11   SRup=0.17   FinalSlope=-0.1
 
TABLE:  "MATERIAL PROPERTIES 03B - CONCRETE DATA"
   Material=4000Psi   Fc=27579.0315580631   eFc=27579.0315580631   LtWtConc=No   SSCurveOpt=Mander   SSHysType=Takeda   SFc=0.00221914   SCap=0.005   FinalSlope=-0.1   FAngle=0   DAngle=0
 
TABLE:  "MATERIAL PROPERTIES 03F - TENDON DATA"
   Material=A416Gr270   Fy=1689905.15872032   Fu=1861584.63016926   SSCurveOpt="270 ksi"   SSHysType=Kinematic   FinalSlope=-0.1
 
TABLE:  "MATERIAL PROPERTIES 03G - OTHER DATA"
   Material=kareem   SSHysType=Takeda   FAngle=0   DAngle=0
 
TABLE:  "MATERIAL PROPERTIES 04 - USER STRESS-STRAIN CURVES"
   Material=kareem   Strain=-5E-09   Stress=-1
   Material=kareem   Strain=0   Stress=0   PointID=A
   Material=kareem   Strain=5E-09   Stress=1
 
TABLE:  "MATERIAL PROPERTIES 06 - DAMPING PARAMETERS"
   Material=4000Psi   ModalRatio=0   VisMass=0   VisStiff=0   HysMass=0   HysStiff=0
   Material=A416Gr270   ModalRatio=0   VisMass=0   VisStiff=0   HysMass=0   HysStiff=0
   Material=A992Fy50   ModalRatio=0   VisMass=0   VisStiff=0   HysMass=0   HysStiff=0
   Material=kareem   ModalRatio=0   VisMass=0   VisStiff=0   HysMass=0   HysStiff=0
 
TABLE:  "OPTIONS - COLORS - DISPLAY"
   DeviceType=Screen   Points=Blue   LinesFrame=Blue   LinesFrmDL=Blue   LinesCable=Green   LinesTendon=Green   SpringLinks=Green   Restraints=Green   Releases=Green   Axes=Cyan   Text=Black   ShadowLines=Gray8Dark   GuideLines=Gray8Dark _
        Highlight=Red   Selection=10504778   AreaFillBot=Red   AreaFillTop=16744703   AreaFillSd=Red   AreaEdge=DarkRed   SolidF1=Red   SolidF2=Blue   SolidF3=Green   SolidF4=Yellow   SolidF5=White   SolidF6=Cyan   SolidEdge=DarkRed _
        Floor=Gray4   Background=White   BGLowLeft=White   BGLowRight=White   BGUpRight=White   Darkness=0
   DeviceType=Printer   Points=Gray8Dark   LinesFrame=Black   LinesFrmDL=Gray4   LinesCable=Black   LinesTendon=Black   SpringLinks=Gray8Dark   Restraints=Gray8Dark   Releases=Gray4   Axes=Black   Text=Black   ShadowLines=Gray4 _
        GuideLines=Gray4   Highlight=Black   Selection=Black   AreaFillBot=Gray4   AreaFillTop=Gray8Dark   AreaFillSd=Gray4   AreaEdge=Black   SolidF1=Gray1Light   SolidF2=Gray2   SolidF3=Gray3   SolidF4=Gray4   SolidF5=Gray5 _
        SolidF6=Gray6   SolidEdge=Black   Floor=Gray4   Background=White   BGLowLeft=White   BGLowRight=White   BGUpRight=White   Darkness=0.5
   DeviceType="Color Printer"   Points=Blue   LinesFrame=Blue   LinesFrmDL=Blue   LinesCable=Green   LinesTendon=Green   SpringLinks=Green   Restraints=Green   Releases=Green   Axes=Cyan   Text=Black   ShadowLines=Gray8Dark _
        GuideLines=Gray8Dark   Highlight=Red   Selection=10504778   AreaFillBot=Red   AreaFillTop=16744703   AreaFillSd=Red   AreaEdge=DarkRed   SolidF1=Red   SolidF2=Blue   SolidF3=Green   SolidF4=Yellow   SolidF5=White   SolidF6=Cyan _
        SolidEdge=DarkRed   Floor=Gray4   Background=White   BGLowLeft=White   BGLowRight=White   BGUpRight=White   Darkness=0.5
 
TABLE:  "OPTIONS - COLORS - OUTPUT"
   DeviceType=Screen   Contour1=13107400   Contour2=6553828   Contour3=Red   Contour4=16639   Contour5=Orange   Contour6=43775   Contour7=54527   Contour8=Yellow   Contour9=65408   Contour10=Green   Contour11=8453888   Contour12=Cyan _
        Contour13=16755200   Contour14=16733440   Contour15=Blue   Transpare=0.5   Ratio1=Cyan   Ratio2=Green   Ratio3=Yellow   Ratio4=Orange   Ratio5=Red   RatioNotD=Gray4   RatioNotC=Red   RatioVal1=0.5   RatioVal2=0.7   RatioVal3=0.9 _
        RatioVal4=1   DFillPos=Blue   DFillNeg=Red   DFillRPos=Green   DFillRNeg=Green
   DeviceType=Printer   Contour1=Black   Contour2=3158064   Contour3=4210752   Contour4=5263440   Contour5=6316128   Contour6=7368816   Contour7=Gray8Dark   Contour8=Gray7   Contour9=Gray6   Contour10=Gray5   Contour11=Gray4 _
        Contour12=Gray3   Contour13=Gray2   Contour14=Gray1Light   Contour15=White   Transpare=0   Ratio1=Gray2   Ratio2=Gray4   Ratio3=Gray8Dark   Ratio4=4210752   Ratio5=Black   RatioNotD=Gray4   RatioNotC=Black   RatioVal1=0.5 _
        RatioVal2=0.7   RatioVal3=0.9   RatioVal4=1   DFillPos=Gray8Dark   DFillNeg=Gray8Dark   DFillRPos=4210752   DFillRNeg=4210752
   DeviceType="Color Printer"   Contour1=13107400   Contour2=6553828   Contour3=Red   Contour4=16639   Contour5=Orange   Contour6=43775   Contour7=54527   Contour8=Yellow   Contour9=65408   Contour10=Green   Contour11=8453888 _
        Contour12=Cyan   Contour13=16755200   Contour14=16733440   Contour15=Blue   Transpare=0   Ratio1=Cyan   Ratio2=Green   Ratio3=Yellow   Ratio4=Orange   Ratio5=Red   RatioNotD=Gray4   RatioNotC=Red   RatioVal1=0.5   RatioVal2=0.7 _
        RatioVal3=0.9   RatioVal4=1   DFillPos=Blue   DFillNeg=Red   DFillRPos=Green   DFillRNeg=Green
 
TABLE:  "PREFERENCES - ALUMINUM DESIGN - AA-ASD 2000"
   THDesign=Envelopes   FrameType="Moment Frame"   SRatioLimit=1   MaxIter=1   LatFact=1.33333333333333   UseLatFact=No   Bridge=No
 
TABLE:  "PREFERENCES - COLD FORMED DESIGN - AISI-ASD96"
   THDesign=Envelopes   FrameType="Braced Frame"   SRatioLimit=1   MaxIter=1   OmegaBS=1.67   OmegaBUS=1.67   OmegaBLTB=1.67   OmegaVS=1.67   OmegaVNS=1.5   OmegaT=1.67   OmegaC=1.8
 
TABLE:  "PREFERENCES - CONCRETE DESIGN - ACI 318-14"
   THDesign=Envelopes   NumCurves=24   NumPoints=11   MinEccen=Yes   PatLLF=0.75   UFLimit=0.95   SeisCat=D   Rho=1   Sds=0.5   PhiT=0.9   PhiCTied=0.65   PhiCSpiral=0.75   PhiV=0.75   PhiVSeismic=0.6   PhiVJoint=0.85
 
TABLE:  "PREFERENCES - DIMENSIONAL"
   MergeTol=0.001   FineGrid=0.25   Nudge=0.25   SelectTol=3   SnapTol=12   SLineThick=2   PLineThick=4   MaxFont=8   MinFont=3   AutoZoom=10   ShrinkFact=70   TextFileLen=240
 
TABLE:  "PREFERENCES - STEEL DESIGN - AISC 360-10"
   THDesign=Envelopes   FrameType=SMF   PatLLF=0.75   SRatioLimit=0.95   MaxIter=1   SDC=D   SeisCode=Yes   SeisLoad=Yes   ImpFactor=1   SystemRho=1   SystemSds=0.5   SystemR=8   SystemCd=5.5   Omega0=3   Provision=LRFD _
        AMethod="Direct Analysis"   SOMethod="General 2nd Order"   SRMethod="Tau-b Fixed"   NLCoeff=0.002   PhiB=0.9   PhiC=0.9   PhiTY=0.9   PhiTF=0.75   PhiV=0.9   PhiVRolledI=1   PhiVT=0.9   PlugWeld=Yes   HSSWelding=ERW   HSSReduceT=No _
        CheckDefl=No   DLRat=120   SDLAndLLRat=120   LLRat=360   TotalRat=240   NetRat=240
 
TABLE:  "PROGRAM CONTROL"
   ProgramName=SAP2000   Version=19.2.0   CurrUnits="KN, m, C"   SteelCode="AISC 360-10"   ConcCode="ACI 318-14"   AlumCode="AA-ASD 2000"   ColdCode=AISI-ASD96   RegenHinge=Yes
 
TABLE:  "PROJECT INFORMATION"
   Item="Company Name"
   Item="Client Name"
   Item="Project Name"
   Item="Project Number"
   Item="Model Name"
   Item="Model Description"
   Item="Revision Number"
   Item="Frame Type"
   Item=Engineer
   Item=Checker
   Item=Supervisor
   Item="Issue Code"
   Item="Design Code"
 
TABLE:  "REBAR SIZES"
   RebarID=#2   Area=3.2258E-05   Diameter=0.00635
   RebarID=#3   Area=7.09675996154547E-05   Diameter=0.009525
   RebarID=#4   Area=0.000129032001922727   Diameter=0.0127
   RebarID=#5   Area=0.000199999601538181   Diameter=0.015875
   RebarID=#6   Area=0.000283870398461819   Diameter=0.01905
   RebarID=#7   Area=0.000387096015381813   Diameter=0.022225
   RebarID=#8   Area=0.000509676413843632   Diameter=0.0254
   RebarID=#9   Area=0.00064516   Diameter=0.0286512005329132
   RebarID=#10   Area=0.00081935318769455   Diameter=0.0322579995155334
   RebarID=#11   Area=0.00100644956308365   Diameter=0.0358139991521835
   RebarID=#14   Area=0.00145161   Diameter=0.0430021989583969
   RebarID=#18   Area=0.00258064   Diameter=0.0573277992248535
   RebarID=10M   Area=0.000100000002655387   Diameter=0.011300000667572
   RebarID=15M   Area=0.000200000005310774   Diameter=0.0159999999403954
   RebarID=20M   Area=0.000300000017579794   Diameter=0.0194999997854233
   RebarID=25M   Area=0.000500000022890568   Diameter=0.0252000016093254
   RebarID=30M   Area=0.000700000008974075   Diameter=0.0299000008821487
   RebarID=35M   Area=0.00100000004578114   Diameter=0.0357000011444092
   RebarID=45M   Area=0.00150000010712624   Diameter=0.0437000003576279
   RebarID=55M   Area=0.00250000007599831   Diameter=0.0564000033855438
   RebarID=6d   Area=2.83000004149973E-05   Diameter=0.006000000166893
   RebarID=8d   Area=5.02999995571375E-05   Diameter=0.00799999997019768
   RebarID=10d   Area=7.85000013634562E-05   Diameter=0.00999999977350235
   RebarID=12d   Area=0.000113000009249449   Diameter=0.012000000333786
   RebarID=14d   Area=0.000154000010818839   Diameter=0.0140000008940697
   RebarID=16d   Area=0.000201000015431643   Diameter=0.0159999999403954
   RebarID=20d   Area=0.000314000005453825   Diameter=0.0199999995470047
   RebarID=25d   Area=0.000491000008711815   Diameter=0.0250000001907349
   RebarID=26d   Area=0.000531000029001236   Diameter=0.0259999997138977
   RebarID=28d   Area=0.000616000043275356   Diameter=0.0280000017881393
   RebarID=N12   Area=0.000113000009249449   Diameter=0.012000000333786
   RebarID=N16   Area=0.000201000015431643   Diameter=0.0159999999403954
   RebarID=N20   Area=0.000314000005453825   Diameter=0.0199999995470047
   RebarID=N24   Area=0.000452000036997795   Diameter=0.024000000667572
   RebarID=N28   Area=0.000616000043275356   Diameter=0.0280000017881393
   RebarID=N32   Area=0.00080400006172657   Diameter=0.0319999998807907
   RebarID=N36   Area=0.00102000001747131   Diameter=0.036000001001358
 
TABLE:  "SOLID PROPERTY DEFINITIONS"
   SolidProp=Solid1   Material=kareem   MatAngleA=0   MatAngleB=0   MatAngleC=0   InComp=Yes   Color=Gray8Dark
 
END TABLE DATA
