File F:\str7\first issue.$2k was saved on m/d/yy at h:mm:ss
 
TABLE:  "ACTIVE DEGREES OF FREEDOM"
   UX=Yes   UY=Yes   UZ=Yes   RX=Yes   RY=Yes   RZ=Yes
 
TABLE:  "ANALYSIS OPTIONS"
   Solver=Advanced   SolverProc=Auto   Force32Bit=No   StiffCase=None   GeomMod=None   HingeOpt="In Elements"
 
TABLE:  "AREA LOADS - UNIFORM"
   Area=58   LoadPat=LLOAD   CoordSys=Local   Dir=3   UnifLoad=-50
   Area=59   LoadPat=LLOAD   CoordSys=Local   Dir=3   UnifLoad=-50
   Area=60   LoadPat=LLOAD   CoordSys=Local   Dir=3   UnifLoad=-50
   Area=61   LoadPat=LLOAD   CoordSys=Local   Dir=3   UnifLoad=-50
   Area=62   LoadPat=LLOAD   CoordSys=Local   Dir=3   UnifLoad=-50
   Area=63   LoadPat=LLOAD   CoordSys=Local   Dir=3   UnifLoad=-50
   Area=64   LoadPat=LLOAD   CoordSys=Local   Dir=3   UnifLoad=-50
   Area=65   LoadPat=LLOAD   CoordSys=Local   Dir=3   UnifLoad=-50
   Area=66   LoadPat=LLOAD   CoordSys=Local   Dir=3   UnifLoad=-50
   Area=67   LoadPat=LLOAD   CoordSys=Local   Dir=3   UnifLoad=-50
   Area=68   LoadPat=LLOAD   CoordSys=Local   Dir=3   UnifLoad=-50
   Area=69   LoadPat=LLOAD   CoordSys=Local   Dir=3   UnifLoad=-50
   Area=70   LoadPat=LLOAD   CoordSys=Local   Dir=3   UnifLoad=-50
   Area=71   LoadPat=LLOAD   CoordSys=Local   Dir=3   UnifLoad=-50
   Area=72   LoadPat=LLOAD   CoordSys=Local   Dir=3   UnifLoad=-50
   Area=73   LoadPat=LLOAD   CoordSys=Local   Dir=3   UnifLoad=-50
   Area=74   LoadPat=LLOAD   CoordSys=Local   Dir=3   UnifLoad=-50
   Area=75   LoadPat=LLOAD   CoordSys=Local   Dir=3   UnifLoad=-50
   Area=76   LoadPat=LLOAD   CoordSys=Local   Dir=3   UnifLoad=-50
   Area=77   LoadPat=LLOAD   CoordSys=Local   Dir=3   UnifLoad=-50
# ... 30 like lines cut
 
TABLE:  "AREA SECTION ASSIGNMENTS"
   Area=8   Section="A992Fy50 0.250"   MatProp=Default
   Area=9   Section="A992Fy50 0.250"   MatProp=Default
   Area=10   Section="A992Fy50 0.250"   MatProp=Default
   Area=11   Section="A992Fy50 0.250"   MatProp=Default
   Area=12   Section="A992Fy50 0.250"   MatProp=Default
   Area=13   Section="A992Fy50 0.250"   MatProp=Default
   Area=14   Section="A992Fy50 0.250"   MatProp=Default
   Area=15   Section="A992Fy50 0.250"   MatProp=Default
   Area=16   Section="A992Fy50 0.250"   MatProp=Default
   Area=17   Section="A992Fy50 0.250"   MatProp=Default
   Area=18   Section="A992Fy50 0.250"   MatProp=Default
   Area=19   Section="A992Fy50 0.250"   MatProp=Default
   Area=20   Section="A992Fy50 0.250"   MatProp=Default
   Area=21   Section="A992Fy50 0.250"   MatProp=Default
   Area=22   Section="A992Fy50 0.250"   MatProp=Default
   Area=23   Section="A992Fy50 0.250"   MatProp=Default
   Area=24   Section="A992Fy50 0.250"   MatProp=Default
   Area=25   Section="A992Fy50 0.250"   MatProp=Default
   Area=26   Section="A992Fy50 0.250"   MatProp=Default
   Area=27   Section="A992Fy50 0.250"   MatProp=Default
# ... 130 like lines cut
 
TABLE:  "AREA SECTION PROPERTIES"
   Section="A992Fy50 0.250"   Material=A992Fy50   MatAngle=0   AreaType=Shell   Type=Shell-Thin   DrillDOF=Yes   Thickness=0.25   BendThick=0.25   Color=Magenta   F11Mod=1   F22Mod=1   F12Mod=1   M11Mod=1   M22Mod=1   M12Mod=1   V13Mod=1 _
        V23Mod=1   MMod=1   WMod=1
 
TABLE:  "AREA SECTION PROPERTY DESIGN PARAMETERS"
   Section="A992Fy50 0.250"   RebarMat=None   RebarOpt=Default
 
TABLE:  "AREA SECTION PROPERTY - TIME DEPENDENT"
   Section="A992Fy50 0.250"   TypeSize=Auto   AutoSFSize=1
 
TABLE:  "AUTO WAVE 3 - WAVE CHARACTERISTICS - GENERAL"
   WaveChar=Default   WaveType="From Theory"   KinFactor=1   SWaterDepth=45   WaveHeight=18   WavePeriod=12   WaveTheory=Linear
 
TABLE:  "CASE - MODAL 1 - GENERAL"
   Case=MODAL   ModeType=Eigen   MaxNumModes=12   MinNumModes=1   EigenShift=0   EigenCutoff=0   EigenTol=1E-09   AutoShift=Yes
 
TABLE:  "CASE - STATIC 1 - LOAD ASSIGNMENTS"
   Case=DEAD   LoadType="Load pattern"   LoadName=DEAD   LoadSF=1
   Case=DLOAD   LoadType="Load pattern"   LoadName=DLOAD   LoadSF=1
   Case=LLOAD   LoadType="Load pattern"   LoadName=LLOAD   LoadSF=1
 
TABLE:  "CONNECTIVITY - AREA"
   Area=8   Joint1=6   Joint2=37   Joint3=38   Joint4=39   GUID=b17ba3d7-f4e2-48c2-bce2-6b26f907e8a6
   Area=9   Joint1=39   Joint2=38   Joint3=40   Joint4=41   GUID=a3d7b64f-3b2b-4077-95eb-cd23aed179cd
   Area=10   Joint1=41   Joint2=40   Joint3=42   Joint4=43   GUID=ee7a82ac-75c0-44c4-bccc-feb62fb9827b
   Area=11   Joint1=43   Joint2=42   Joint3=44   Joint4=45   GUID=25971209-5d4c-4bdb-82c3-9bce4689fd2e
   Area=12   Joint1=45   Joint2=44   Joint3=46   Joint4=9   GUID=db3d7e4e-09a4-4c5e-b3da-300ab4943a58
   Area=13   Joint1=37   Joint2=47   Joint3=48   Joint4=38   GUID=1f4ef794-050a-4090-a69e-3469273ccac9
   Area=14   Joint1=38   Joint2=48   Joint3=49   Joint4=40   GUID=4ce936df-e0d6-4b80-bedf-2c7e4f2f00f4
   Area=15   Joint1=40   Joint2=49   Joint3=50   Joint4=42   GUID=fd5f123a-2abe-456c-a5f0-2b428c76d75f
   Area=16   Joint1=42   Joint2=50   Joint3=51   Joint4=44   GUID=89ee510d-5a97-40ec-8be5-d05f48c3fe80
   Area=17   Joint1=44   Joint2=51   Joint3=52   Joint4=46   GUID=195bae49-9b90-4ea6-9ad3-31cdb1c08217
   Area=18   Joint1=47   Joint2=53   Joint3=54   Joint4=48   GUID=54b597e6-691a-441b-b084-4b3a874ea351
   Area=19   Joint1=48   Joint2=54   Joint3=55   Joint4=49   GUID=0a272124-5e86-43ca-84ca-0f4d1facffa6
   Area=20   Joint1=49   Joint2=55   Joint3=56   Joint4=50   GUID=0c69d363-2104-4550-8055-94c63d56063f
   Area=21   Joint1=50   Joint2=56   Joint3=57   Joint4=51   GUID=b3ea7411-a67b-4cf3-91e1-f8a21fbc5cb2
   Area=22   Joint1=51   Joint2=57   Joint3=58   Joint4=52   GUID=26088d8f-f074-4258-87e5-86be99c139e1
   Area=23   Joint1=53   Joint2=59   Joint3=60   Joint4=54   GUID=9d7fdae7-019e-452e-8dde-98076eacb7be
   Area=24   Joint1=54   Joint2=60   Joint3=61   Joint4=55   GUID=c7ca548c-a061-45d9-a9e6-e790867606db
   Area=25   Joint1=55   Joint2=61   Joint3=62   Joint4=56   GUID=5e740bd5-eac7-4e46-a71a-42e3b69b7b17
   Area=26   Joint1=56   Joint2=62   Joint3=63   Joint4=57   GUID=ec3211db-0cf1-409a-885b-77e4842c7e47
   Area=27   Joint1=57   Joint2=63   Joint3=64   Joint4=58   GUID=8a552b49-c6a3-457d-bf7a-b1b275997db2
   Area=28   Joint1=59   Joint2=15   Joint3=65   Joint4=60   GUID=4d7f999b-ec2e-472c-b9c2-5e77a590d4ba
   Area=29   Joint1=60   Joint2=65   Joint3=66   Joint4=61   GUID=07272eb6-e02d-44f0-86fe-cf36bec52571
   Area=30   Joint1=61   Joint2=66   Joint3=67   Joint4=62   GUID=20dec653-1c90-4006-9b24-eb3d08491ee8
   Area=31   Joint1=62   Joint2=67   Joint3=68   Joint4=63   GUID=56ea94d8-d3ce-4518-acb3-fab6ee9136c0
   Area=32   Joint1=63   Joint2=68   Joint3=18   Joint4=64   GUID=1772dcc8-edf8-44ef-85e6-facd13542aa2
   Area=33   Joint1=15   Joint2=69   Joint3=70   Joint4=65   GUID=7e7f8941-c3e9-4aed-b929-bf3dcec67874
   Area=34   Joint1=65   Joint2=70   Joint3=71   Joint4=66   GUID=cf12c1b6-6d30-4156-9a99-4681a0a38279
   Area=35   Joint1=66   Joint2=71   Joint3=72   Joint4=67   GUID=d4aa702f-5cba-40a0-83b7-da74366f5f62
   Area=36   Joint1=67   Joint2=72   Joint3=73   Joint4=68   GUID=7143e2f2-e831-4944-b4cc-227a6d1df068
   Area=37   Joint1=68   Joint2=73   Joint3=74   Joint4=18   GUID=e23934a2-1d3b-4db0-88b2-99a426f75e80
   Area=38   Joint1=69   Joint2=75   Joint3=76   Joint4=70   GUID=3084e652-28a6-450e-815e-7b8dbe85a652
   Area=39   Joint1=70   Joint2=76   Joint3=77   Joint4=71   GUID=9da5f28e-ef45-4f6b-9ffe-bc6fb6d2a9b7
   Area=40   Joint1=71   Joint2=77   Joint3=78   Joint4=72   GUID=4c4e8873-a0e6-4dab-a810-994f9d1ac96f
   Area=41   Joint1=72   Joint2=78   Joint3=79   Joint4=73   GUID=489a33fd-b591-41ac-96a4-baba5b3b558c
   Area=42   Joint1=73   Joint2=79   Joint3=80   Joint4=74   GUID=ee5f290c-1bc5-428a-bdaf-d3fd2c558d22
   Area=43   Joint1=75   Joint2=81   Joint3=82   Joint4=76   GUID=78764c7f-e9f7-4e83-a93a-d230aa9b85b3
   Area=44   Joint1=76   Joint2=82   Joint3=83   Joint4=77   GUID=57741116-97df-4df2-867d-c9470de95da2
   Area=45   Joint1=77   Joint2=83   Joint3=84   Joint4=78   GUID=189ca1b7-16ee-4531-9b69-fb32cdccb554
   Area=46   Joint1=78   Joint2=84   Joint3=85   Joint4=79   GUID=f3de4bbf-1a8e-4f50-ab3d-fb9a9c2aa3bd
   Area=47   Joint1=79   Joint2=85   Joint3=86   Joint4=80   GUID=aa7c919a-d73e-4da4-8f50-a1dd24be2357
   Area=48   Joint1=81   Joint2=87   Joint3=88   Joint4=82   GUID=e43ea6e1-4df5-40dc-89c3-b69c3da6df52
   Area=49   Joint1=82   Joint2=88   Joint3=89   Joint4=83   GUID=2ae97025-fd99-4dda-9765-cc495898d98f
   Area=50   Joint1=83   Joint2=89   Joint3=90   Joint4=84   GUID=c52f96f9-b785-4169-8282-47d0c8743b34
   Area=51   Joint1=84   Joint2=90   Joint3=91   Joint4=85   GUID=3d45e23f-9bdd-415e-addd-a848f7a34610
   Area=52   Joint1=85   Joint2=91   Joint3=92   Joint4=86   GUID=199e9d9a-6232-4405-bce5-4e6de394cfc2
   Area=53   Joint1=87   Joint2=24   Joint3=93   Joint4=88   GUID=343e51e6-7669-4a03-9f1c-da231732b8ce
   Area=54   Joint1=88   Joint2=93   Joint3=94   Joint4=89   GUID=825ddc5c-596b-443b-8732-7c70caf14619
   Area=55   Joint1=89   Joint2=94   Joint3=95   Joint4=90   GUID=a5a9e828-62f7-4f09-9c04-b7eb8bb720c8
   Area=56   Joint1=90   Joint2=95   Joint3=96   Joint4=91   GUID=8d6d4581-a059-41c0-b705-4766df2018f5
   Area=57   Joint1=91   Joint2=96   Joint3=27   Joint4=92   GUID=e77ddfd5-2204-4a7a-b23c-7344fc54daa1
   Area=58   Joint1=24   Joint2=97   Joint3=98   Joint4=93   GUID=d51bdddf-14fc-4ca5-9646-34871debb40b
   Area=59   Joint1=93   Joint2=98   Joint3=99   Joint4=94   GUID=66106f14-f607-42b8-a40b-2ba2fe89ad22
   Area=60   Joint1=94   Joint2=99   Joint3=100   Joint4=95   GUID=34baa3ae-80ac-4412-8f87-3cba827ce99c
   Area=61   Joint1=95   Joint2=100   Joint3=101   Joint4=96   GUID=f79fa6f5-c4c6-4867-b375-df470b2a9efb
   Area=62   Joint1=96   Joint2=101   Joint3=102   Joint4=27   GUID=e64abb55-aaf7-4ee6-b9b0-4ec39e66d64a
   Area=63   Joint1=97   Joint2=103   Joint3=104   Joint4=98   GUID=e438c89b-e1d6-4293-8a9c-cf30135208cc
   Area=64   Joint1=98   Joint2=104   Joint3=105   Joint4=99   GUID=e4c98a27-ef42-4187-802b-956baa3e8b40
   Area=65   Joint1=99   Joint2=105   Joint3=106   Joint4=100   GUID=c167cb1c-5ade-46d4-aa74-de1b694be6f2
   Area=66   Joint1=100   Joint2=106   Joint3=107   Joint4=101   GUID=168d059c-021e-4cc6-8222-d0cb7b5a2740
   Area=67   Joint1=101   Joint2=107   Joint3=108   Joint4=102   GUID=af1714f3-d171-4889-9f52-6da3403d5fcb
   Area=68   Joint1=103   Joint2=109   Joint3=110   Joint4=104   GUID=17d99793-2075-41f7-ba9c-285adf6c2e03
   Area=69   Joint1=104   Joint2=110   Joint3=111   Joint4=105   GUID=5424c2ad-5633-4d91-bac3-e2d1e0f51bd4
   Area=70   Joint1=105   Joint2=111   Joint3=112   Joint4=106   GUID=aa79d590-d6e2-4449-aae3-412571b85ce3
   Area=71   Joint1=106   Joint2=112   Joint3=113   Joint4=107   GUID=b2a9d201-95db-4dc5-901c-484cdc27238c
   Area=72   Joint1=107   Joint2=113   Joint3=114   Joint4=108   GUID=abc1e5a0-001b-41b1-a694-b48b1f32d4e3
   Area=73   Joint1=109   Joint2=115   Joint3=116   Joint4=110   GUID=da6d0b50-be48-4496-beec-26cfacd24586
   Area=74   Joint1=110   Joint2=116   Joint3=117   Joint4=111   GUID=589fda18-45f6-470f-92ab-cc284f368a87
   Area=75   Joint1=111   Joint2=117   Joint3=118   Joint4=112   GUID=f7d8d0cc-a06b-4aaf-842d-ddf3cba2334e
   Area=76   Joint1=112   Joint2=118   Joint3=119   Joint4=113   GUID=81c98452-ccbb-4472-93cd-ca44e978d923
   Area=77   Joint1=113   Joint2=119   Joint3=120   Joint4=114   GUID=1c83f6d2-f920-43c6-8145-5b20aba21839
   Area=78   Joint1=115   Joint2=33   Joint3=121   Joint4=116   GUID=6e0cacbd-fd28-472f-98af-4f099aaded37
   Area=79   Joint1=116   Joint2=121   Joint3=122   Joint4=117   GUID=45e4c30c-b0af-40c7-82bb-62268b32edbc
   Area=80   Joint1=117   Joint2=122   Joint3=123   Joint4=118   GUID=3292e89b-9d8e-4ccc-bd8b-e5dcf452dd40
   Area=81   Joint1=118   Joint2=123   Joint3=124   Joint4=119   GUID=865ad63f-5768-48e3-820e-41e805770111
   Area=82   Joint1=119   Joint2=124   Joint3=36   Joint4=120   GUID=72f41088-dc49-4961-89fc-6aee540a6378
   Area=83   Joint1=21   Joint2=125   Joint3=126   Joint4=127   GUID=e4bc6b2c-cb0c-425f-84e4-1bdfb19918f9
   Area=84   Joint1=127   Joint2=126   Joint3=128   Joint4=129   GUID=bc642ce1-819d-416b-ba3b-5b0285ab8a89
   Area=85   Joint1=129   Joint2=128   Joint3=130   Joint4=131   GUID=4ae13175-0157-4663-9dc9-3f4ca8501b94
   Area=86   Joint1=131   Joint2=130   Joint3=132   Joint4=133   GUID=24b5d1e1-4d70-4e97-8aa1-6724fc38fefe
   Area=87   Joint1=133   Joint2=132   Joint3=97   Joint4=24   GUID=de2065ab-75a0-4e15-a5b8-da3ead8e16b5
   Area=88   Joint1=125   Joint2=134   Joint3=135   Joint4=126   GUID=75cd410d-11f8-493f-bb74-3f79beeefd01
   Area=89   Joint1=126   Joint2=135   Joint3=136   Joint4=128   GUID=176e23e4-1719-49f3-9841-60e0e7f447e9
   Area=90   Joint1=128   Joint2=136   Joint3=137   Joint4=130   GUID=ea7ee13f-63ab-4003-8b67-74e8c577a8de
   Area=91   Joint1=130   Joint2=137   Joint3=138   Joint4=132   GUID=8b767816-709f-494a-9d20-d036f2d484ca
   Area=92   Joint1=132   Joint2=138   Joint3=103   Joint4=97   GUID=52320637-3fa4-4172-a535-3104f938d77d
   Area=93   Joint1=134   Joint2=139   Joint3=140   Joint4=135   GUID=df3d46c0-ad2d-464c-aa3e-703fa9fda475
   Area=94   Joint1=135   Joint2=140   Joint3=141   Joint4=136   GUID=891aec76-3f00-46d0-97bd-fb62e459b0ea
   Area=95   Joint1=136   Joint2=141   Joint3=142   Joint4=137   GUID=f3338716-92c4-4b65-86b1-381ba6f9486f
   Area=96   Joint1=137   Joint2=142   Joint3=143   Joint4=138   GUID=96a006f9-390a-47fc-863c-f5d648fe3aae
   Area=97   Joint1=138   Joint2=143   Joint3=109   Joint4=103   GUID=b504c9ca-0a95-40fa-a4ae-3c5c844c3aef
   Area=98   Joint1=139   Joint2=144   Joint3=145   Joint4=140   GUID=28e67666-4936-42d5-b849-9eb32814fed8
   Area=99   Joint1=140   Joint2=145   Joint3=146   Joint4=141   GUID=631acd57-bde1-4761-91c6-cf4d1796658d
   Area=100   Joint1=141   Joint2=146   Joint3=147   Joint4=142   GUID=0ef46b21-8a31-4d7d-b76a-f1431a59fc59
   Area=101   Joint1=142   Joint2=147   Joint3=148   Joint4=143   GUID=b679e9f1-9427-4d6e-98b5-6fc043e64494
   Area=102   Joint1=143   Joint2=148   Joint3=115   Joint4=109   GUID=b6777c00-e147-46be-bdc5-ee3843023900
   Area=103   Joint1=144   Joint2=30   Joint3=149   Joint4=145   GUID=e15cd287-2def-4b18-9036-c3780c7e4609
   Area=104   Joint1=145   Joint2=149   Joint3=150   Joint4=146   GUID=4dea7711-9ae1-40db-8644-2ad912430071
   Area=105   Joint1=146   Joint2=150   Joint3=151   Joint4=147   GUID=a405dd51-a778-42ee-b105-427390931249
   Area=106   Joint1=147   Joint2=151   Joint3=152   Joint4=148   GUID=7fe732b7-f693-40ed-8498-a4dfe4c51566
   Area=107   Joint1=148   Joint2=152   Joint3=33   Joint4=115   GUID=fe7d0ef9-6bbc-4d97-adfb-f9e5599b7149
   Area=108   Joint1=12   Joint2=153   Joint3=154   Joint4=155   GUID=dcfa7e20-6566-405b-a8e9-158ef1f365c2
   Area=109   Joint1=155   Joint2=154   Joint3=156   Joint4=157   GUID=dcb2f887-7bef-4f23-8a5b-54f3de45a25c
   Area=110   Joint1=157   Joint2=156   Joint3=158   Joint4=159   GUID=6314226c-a895-49b1-be8b-21581aa32aed
   Area=111   Joint1=159   Joint2=158   Joint3=160   Joint4=161   GUID=cc7d37d4-e646-46a2-96a5-ada2e98db0ff
   Area=112   Joint1=161   Joint2=160   Joint3=69   Joint4=15   GUID=f6a0bab1-0df9-4c18-b550-3e8af737b893
   Area=113   Joint1=153   Joint2=162   Joint3=163   Joint4=154   GUID=f5e0d676-1c3b-4704-a4cb-4a974931aab2
   Area=114   Joint1=154   Joint2=163   Joint3=164   Joint4=156   GUID=bb2fb3ae-93ef-4fa7-a90c-b4ceb8e6b989
   Area=115   Joint1=156   Joint2=164   Joint3=165   Joint4=158   GUID=c1f39d09-c2e3-45f3-99e8-d8ad217adb72
   Area=116   Joint1=158   Joint2=165   Joint3=166   Joint4=160   GUID=b95b94e7-417f-440d-82e0-bbcde21aa38a
   Area=117   Joint1=160   Joint2=166   Joint3=75   Joint4=69   GUID=336be6d5-a33c-4a21-9831-ce47d2545fa5
   Area=118   Joint1=162   Joint2=167   Joint3=168   Joint4=163   GUID=eb62f5a9-66da-4394-90d2-6f8a24f4a864
   Area=119   Joint1=163   Joint2=168   Joint3=169   Joint4=164   GUID=10f0a8f1-7ddc-4d01-b7ec-31b7e84d12e0
   Area=120   Joint1=164   Joint2=169   Joint3=170   Joint4=165   GUID=4dce5ba6-d355-466f-ac85-6ee8f558ac36
   Area=121   Joint1=165   Joint2=170   Joint3=171   Joint4=166   GUID=edae8b53-ca46-4dbc-8e6f-795c6b11f9af
   Area=122   Joint1=166   Joint2=171   Joint3=81   Joint4=75   GUID=b7adefad-96c4-458f-b1db-179cd7a8fb7c
   Area=123   Joint1=167   Joint2=172   Joint3=173   Joint4=168   GUID=4e263c99-5c35-422d-8548-98de627c8253
   Area=124   Joint1=168   Joint2=173   Joint3=174   Joint4=169   GUID=0e8589c5-1757-415d-9a1c-5a9f39c7e071
   Area=125   Joint1=169   Joint2=174   Joint3=175   Joint4=170   GUID=610c3829-1823-4d2c-a707-643952fdf00f
   Area=126   Joint1=170   Joint2=175   Joint3=176   Joint4=171   GUID=32620a3b-c297-4939-ad17-9e7721c6549c
   Area=127   Joint1=171   Joint2=176   Joint3=87   Joint4=81   GUID=b3ea25ca-c99a-4b8d-af0a-ecb65df13d32
   Area=128   Joint1=172   Joint2=21   Joint3=127   Joint4=173   GUID=b09ac3af-b1b4-4b40-8472-6a862f85cd3c
   Area=129   Joint1=173   Joint2=127   Joint3=129   Joint4=174   GUID=d4443ae7-68a5-48e2-983f-dd419acf83d3
   Area=130   Joint1=174   Joint2=129   Joint3=131   Joint4=175   GUID=8675833c-f49a-4cff-b482-6282333ae709
   Area=131   Joint1=175   Joint2=131   Joint3=133   Joint4=176   GUID=ae306881-50b4-401d-9186-0860fdd4479a
   Area=132   Joint1=176   Joint2=133   Joint3=24   Joint4=87   GUID=29fa63d8-e927-493a-8876-6914a7963469
   Area=133   Joint1=3   Joint2=177   Joint3=178   Joint4=179   GUID=ee4ca847-2852-4fc3-ab8d-43866e8c94bc
   Area=134   Joint1=179   Joint2=178   Joint3=180   Joint4=181   GUID=216e2a55-86ed-4c09-9340-39621779da45
   Area=135   Joint1=181   Joint2=180   Joint3=182   Joint4=183   GUID=d13c3289-3eab-4d31-8873-28057c4ada0b
   Area=136   Joint1=183   Joint2=182   Joint3=184   Joint4=185   GUID=aa4740e6-3639-4cfc-b4bc-47505fab7ca0
   Area=137   Joint1=185   Joint2=184   Joint3=37   Joint4=6   GUID=31447e9c-c512-41d7-be63-36ce0b31cfb4
   Area=138   Joint1=177   Joint2=186   Joint3=187   Joint4=178   GUID=174a0b92-59af-4d52-8efc-08c9f7dc3014
   Area=139   Joint1=178   Joint2=187   Joint3=188   Joint4=180   GUID=88ca8f70-3992-4cd3-89ab-52019bf4ca2c
   Area=140   Joint1=180   Joint2=188   Joint3=189   Joint4=182   GUID=25f6cbd1-57c4-4a77-a490-49b5946f8c33
   Area=141   Joint1=182   Joint2=189   Joint3=190   Joint4=184   GUID=a912d210-da06-4342-9eb5-7c0898bc4c10
   Area=142   Joint1=184   Joint2=190   Joint3=47   Joint4=37   GUID=8be1664d-f30f-4e8a-80dc-738e8c4619e2
   Area=143   Joint1=186   Joint2=191   Joint3=192   Joint4=187   GUID=3998f217-b51d-46df-a47c-0fb584d52b83
   Area=144   Joint1=187   Joint2=192   Joint3=193   Joint4=188   GUID=26b2e1a4-79bd-47e6-a2ba-21a58395db68
   Area=145   Joint1=188   Joint2=193   Joint3=194   Joint4=189   GUID=7176d929-895b-4caf-8888-8d5886985384
   Area=146   Joint1=189   Joint2=194   Joint3=195   Joint4=190   GUID=a36520d5-74b0-4eff-a6d8-bfc1e385b1fa
   Area=147   Joint1=190   Joint2=195   Joint3=53   Joint4=47   GUID=85410da0-62bc-4f02-900e-272581d1adc1
   Area=148   Joint1=191   Joint2=196   Joint3=197   Joint4=192   GUID=0f50f56b-0eee-473e-b422-1177f80b1b0e
   Area=149   Joint1=192   Joint2=197   Joint3=198   Joint4=193   GUID=9f74cf5b-925f-4c71-bb20-ee2215758474
   Area=150   Joint1=193   Joint2=198   Joint3=199   Joint4=194   GUID=6c8bbc19-e787-4ad2-acaf-8b2f6257dc33
   Area=151   Joint1=194   Joint2=199   Joint3=200   Joint4=195   GUID=521f230c-4152-44a2-a1f6-bbdb14293c18
   Area=152   Joint1=195   Joint2=200   Joint3=59   Joint4=53   GUID=817a0489-bf9e-4b7a-85e5-ac8bd2856b6e
   Area=153   Joint1=196   Joint2=12   Joint3=155   Joint4=197   GUID=acf2159c-6a4f-4f9c-9b66-3427302f8f7c
   Area=154   Joint1=197   Joint2=155   Joint3=157   Joint4=198   GUID=991ee585-c485-4ef4-872e-6149c82fa045
   Area=155   Joint1=198   Joint2=157   Joint3=159   Joint4=199   GUID=b18633eb-0063-4468-857b-0da95b986175
   Area=156   Joint1=199   Joint2=159   Joint3=161   Joint4=200   GUID=1b94bd70-f2c1-4f82-bf74-71b1ba1524d4
   Area=157   Joint1=200   Joint2=161   Joint3=15   Joint4=59   GUID=9a0adc42-f63f-4d2e-acff-c57b6aa37008
 
TABLE:  "CONNECTIVITY - FRAME"
   Frame=1   JointI=1   JointJ=2   IsCurved=No   GUID=a07d55c7-d269-48c1-bccf-f119e2ad5b5a
   Frame=2   JointI=2   JointJ=3   IsCurved=No   GUID=ab1f10b0-9e2f-4bb7-8f07-071c185c4242
   Frame=3   JointI=4   JointJ=5   IsCurved=No   GUID=f7d03e71-3130-484d-82c6-b7bb97a02a60
   Frame=4   JointI=5   JointJ=6   IsCurved=No   GUID=1aa9c1d6-257b-4a84-ae17-38451b7f50e4
   Frame=5   JointI=7   JointJ=8   IsCurved=No   GUID=db9d15db-9d1d-4eb5-9944-92257fbf616e
   Frame=6   JointI=8   JointJ=9   IsCurved=No   GUID=6071bce8-1d86-4396-ad23-00d756c43c5a
   Frame=7   JointI=10   JointJ=11   IsCurved=No   GUID=c7cffb38-4609-485c-a593-70b65027b36a
   Frame=8   JointI=11   JointJ=12   IsCurved=No   GUID=bed72610-7ece-4aae-adf2-5d1e2f2c0117
   Frame=9   JointI=13   JointJ=14   IsCurved=No   GUID=a39c5489-4c93-43c8-bfd9-fc33870db633
   Frame=10   JointI=14   JointJ=15   IsCurved=No   GUID=18c6cbee-85fe-4c53-a29b-f4ab5cb18be4
   Frame=11   JointI=16   JointJ=17   IsCurved=No   GUID=c55995a5-b14e-4e55-b2c5-ff84b751bbec
   Frame=12   JointI=17   JointJ=18   IsCurved=No   GUID=247358a8-3673-445c-9234-01a9d8495248
   Frame=13   JointI=19   JointJ=20   IsCurved=No   GUID=484433ac-2288-49a6-8339-258e987d5d31
   Frame=14   JointI=20   JointJ=21   IsCurved=No   GUID=2ad16239-719c-49f3-a177-7e5bc46466a0
   Frame=15   JointI=22   JointJ=23   IsCurved=No   GUID=6b55148a-afb7-4e76-935f-390be8be346f
   Frame=16   JointI=23   JointJ=24   IsCurved=No   GUID=e895b0d2-419d-46f6-a812-8eda0963b9fa
   Frame=17   JointI=25   JointJ=26   IsCurved=No   GUID=c2bcc3e9-ab5c-4f05-8970-6558c3d72917
   Frame=18   JointI=26   JointJ=27   IsCurved=No   GUID=707932a8-14f0-481f-8871-e65688f3a80c
   Frame=19   JointI=28   JointJ=29   IsCurved=No   GUID=a139841c-fce2-4adc-b525-142f6405787c
   Frame=20   JointI=29   JointJ=30   IsCurved=No   GUID=2556c9be-73d8-4aa9-9373-bf5c4bca32fa
   Frame=21   JointI=31   JointJ=32   IsCurved=No   GUID=f032c99d-79fa-43de-8154-edfdf52e394e
   Frame=22   JointI=32   JointJ=33   IsCurved=No   GUID=d0cd6216-d542-47be-b939-6ead18ad4258
   Frame=23   JointI=34   JointJ=35   IsCurved=No   GUID=fa5918fa-9d3f-4f19-a54a-352736fe9771
   Frame=24   JointI=35   JointJ=36   IsCurved=No   GUID=64fe9779-70f7-42b9-be13-c8aae96351ea
   Frame=25   JointI=2   JointJ=11   IsCurved=No   GUID=52408556-7f88-41ca-b91e-548f92afebd1
   Frame=26   JointI=3   JointJ=12   IsCurved=No   GUID=2f5caa9c-2c4d-4b98-8fa5-bbed34323f90
   Frame=27   JointI=11   JointJ=20   IsCurved=No   GUID=36d9265d-0b56-45ca-822b-1d08ab129304
   Frame=28   JointI=12   JointJ=21   IsCurved=No   GUID=be944807-200e-441d-95b2-8ad093458f26
   Frame=29   JointI=20   JointJ=29   IsCurved=No   GUID=7f9eb51a-d686-48ba-8b77-27108e0aa789
   Frame=30   JointI=21   JointJ=30   IsCurved=No   GUID=c5b4dffa-b8c5-4115-a3ce-8ffb4d5ae49c
   Frame=31   JointI=5   JointJ=14   IsCurved=No   GUID=d9d94d61-2807-46da-b537-3f916ab31b2b
   Frame=32   JointI=6   JointJ=15   IsCurved=No   GUID=a65b70f9-812d-403c-9557-6d963d54be62
   Frame=33   JointI=14   JointJ=23   IsCurved=No   GUID=51005f68-a00f-4aac-b77e-27020d0dd045
   Frame=34   JointI=15   JointJ=24   IsCurved=No   GUID=b420a7de-deca-4f93-bb93-43f768be84ec
   Frame=35   JointI=23   JointJ=32   IsCurved=No   GUID=4f810c0b-cb1b-44f5-be50-a27f5d33ea59
   Frame=36   JointI=24   JointJ=33   IsCurved=No   GUID=42e24b4b-34d3-42d2-9e14-4647652a7447
   Frame=37   JointI=8   JointJ=17   IsCurved=No   GUID=70bfa299-8edd-4cd8-8900-8ac4996b3690
   Frame=38   JointI=9   JointJ=18   IsCurved=No   GUID=5f163804-a58b-4bbd-b22f-a51e338cbb96
   Frame=39   JointI=17   JointJ=26   IsCurved=No   GUID=53cf3150-8ac8-441f-97e3-b542717a200d
   Frame=40   JointI=18   JointJ=27   IsCurved=No   GUID=d450c0e4-a1a5-4ff0-880f-11e94aeea603
   Frame=41   JointI=26   JointJ=35   IsCurved=No   GUID=14ba310d-c1eb-4bf3-9f99-709545df94aa
   Frame=42   JointI=27   JointJ=36   IsCurved=No   GUID=29c68a5f-da46-4aa9-b85e-221c6dd7e7db
   Frame=43   JointI=2   JointJ=5   IsCurved=No   GUID=f584a458-a161-40c9-802c-71fd07339556
   Frame=44   JointI=3   JointJ=6   IsCurved=No   GUID=4f96243c-e65a-4bf3-9857-16faa29f78e6
   Frame=45   JointI=5   JointJ=8   IsCurved=No   GUID=cee378b8-b755-4817-a5cf-79dfe73132d4
   Frame=46   JointI=6   JointJ=9   IsCurved=No   GUID=708969d1-ff29-4e07-9d0b-37edef245a38
   Frame=47   JointI=11   JointJ=14   IsCurved=No   GUID=70615a02-3990-400d-bdf8-2ae477949a3e
   Frame=48   JointI=12   JointJ=15   IsCurved=No   GUID=b51ce711-f3e1-4efe-a0c4-3aa06ee9a20c
   Frame=49   JointI=14   JointJ=17   IsCurved=No   GUID=68611f85-8ac3-420b-af0e-a1eba8b55c09
   Frame=50   JointI=15   JointJ=18   IsCurved=No   GUID=6182c728-d442-4c0e-8e17-c258284c8200
   Frame=51   JointI=20   JointJ=23   IsCurved=No   GUID=c40ee613-6ff5-4a39-9ac1-2f85f07f0cff
   Frame=52   JointI=21   JointJ=24   IsCurved=No   GUID=9c826e18-7fb2-4cd4-88b9-293aae9ab69f
   Frame=53   JointI=23   JointJ=26   IsCurved=No   GUID=9607a65a-26f3-46fe-8861-bf3afe69357c
   Frame=54   JointI=24   JointJ=27   IsCurved=No   GUID=9eebbc26-f128-4a6a-b225-4880682e9e66
   Frame=55   JointI=29   JointJ=32   IsCurved=No   GUID=796b2353-33b2-4c2e-bf62-403db193106d
   Frame=56   JointI=30   JointJ=33   IsCurved=No   GUID=ba114e24-0034-457c-9db2-59c23e89095f
   Frame=57   JointI=32   JointJ=35   IsCurved=No   GUID=7cd25d08-7949-4b77-b821-e15104401353
   Frame=58   JointI=33   JointJ=36   IsCurved=No   GUID=da66d290-fb45-4df9-bc87-5c23d9e2577b
 
TABLE:  "COORDINATE SYSTEMS"
   Name=GLOBAL   Type=Cartesian   X=0   Y=0   Z=0   AboutZ=0   AboutY=0   AboutX=0
 
TABLE:  "DATABASE DOCUMENTATION"
 
TABLE:  "DATABASE FORMAT TYPES"
   UnitsCurr=Yes   OverrideE=No
 
TABLE:  "FRAME AUTO MESH ASSIGNMENTS"
   Frame=1   AutoMesh=Yes   AtJoints=Yes   AtFrames=No   NumSegments=0   MaxLength=0   MaxDegrees=0
   Frame=2   AutoMesh=Yes   AtJoints=Yes   AtFrames=No   NumSegments=0   MaxLength=0   MaxDegrees=0
   Frame=3   AutoMesh=Yes   AtJoints=Yes   AtFrames=No   NumSegments=0   MaxLength=0   MaxDegrees=0
   Frame=4   AutoMesh=Yes   AtJoints=Yes   AtFrames=No   NumSegments=0   MaxLength=0   MaxDegrees=0
   Frame=5   AutoMesh=Yes   AtJoints=Yes   AtFrames=No   NumSegments=0   MaxLength=0   MaxDegrees=0
   Frame=6   AutoMesh=Yes   AtJoints=Yes   AtFrames=No   NumSegments=0   MaxLength=0   MaxDegrees=0
   Frame=7   AutoMesh=Yes   AtJoints=Yes   AtFrames=No   NumSegments=0   MaxLength=0   MaxDegrees=0
   Frame=8   AutoMesh=Yes   AtJoints=Yes   AtFrames=No   NumSegments=0   MaxLength=0   MaxDegrees=0
   Frame=9   AutoMesh=Yes   AtJoints=Yes   AtFrames=No   NumSegments=0   MaxLength=0   MaxDegrees=0
   Frame=10   AutoMesh=Yes   AtJoints=Yes   AtFrames=No   NumSegments=0   MaxLength=0   MaxDegrees=0
   Frame=11   AutoMesh=Yes   AtJoints=Yes   AtFrames=No   NumSegments=0   MaxLength=0   MaxDegrees=0
   Frame=12   AutoMesh=Yes   AtJoints=Yes   AtFrames=No   NumSegments=0   MaxLength=0   MaxDegrees=0
   Frame=13   AutoMesh=Yes   AtJoints=Yes   AtFrames=No   NumSegments=0   MaxLength=0   MaxDegrees=0
   Frame=14   AutoMesh=Yes   AtJoints=Yes   AtFrames=No   NumSegments=0   MaxLength=0   MaxDegrees=0
   Frame=15   AutoMesh=Yes   AtJoints=Yes   AtFrames=No   NumSegments=0   MaxLength=0   MaxDegrees=0
   Frame=16   AutoMesh=Yes   AtJoints=Yes   AtFrames=No   NumSegments=0   MaxLength=0   MaxDegrees=0
   Frame=17   AutoMesh=Yes   AtJoints=Yes   AtFrames=No   NumSegments=0   MaxLength=0   MaxDegrees=0
   Frame=18   AutoMesh=Yes   AtJoints=Yes   AtFrames=No   NumSegments=0   MaxLength=0   MaxDegrees=0
   Frame=19   AutoMesh=Yes   AtJoints=Yes   AtFrames=No   NumSegments=0   MaxLength=0   MaxDegrees=0
   Frame=20   AutoMesh=Yes   AtJoints=Yes   AtFrames=No   NumSegments=0   MaxLength=0   MaxDegrees=0
# ... 38 like lines cut
 
TABLE:  "FRAME DESIGN PROCEDURES"
   Frame=1   DesignProc="No Design"
   Frame=2   DesignProc="No Design"
   Frame=3   DesignProc="No Design"
   Frame=4   DesignProc="No Design"
   Frame=5   DesignProc="No Design"
   Frame=6   DesignProc="No Design"
   Frame=7   DesignProc="No Design"
   Frame=8   DesignProc="No Design"
   Frame=9   DesignProc="No Design"
   Frame=10   DesignProc="No Design"
   Frame=11   DesignProc="No Design"
   Frame=12   DesignProc="No Design"
   Frame=13   DesignProc="No Design"
   Frame=14   DesignProc="No Design"
   Frame=15   DesignProc="No Design"
   Frame=16   DesignProc="No Design"
   Frame=17   DesignProc="No Design"
   Frame=18   DesignProc="No Design"
   Frame=19   DesignProc="No Design"
   Frame=20   DesignProc="No Design"
# ... 38 like lines cut
 
TABLE:  "FRAME LOADS - DISTRIBUTED"
   Frame=38   LoadPat=DEAD   CoordSys=GLOBAL   Type=Force   Dir=Z   DistType=RelDist   RelDistA=0   RelDistB=1   AbsDistA=0   AbsDistB=6   FOverLA=-10   FOverLB=-10   GUID=9bd207d5-2331-4a60-a426-1eaed1a10829
 
TABLE:  "FRAME LOAD TRANSFER OPTIONS"
   Frame=1   Transfer=Yes
   Frame=2   Transfer=Yes
   Frame=3   Transfer=Yes
   Frame=4   Transfer=Yes
   Frame=5   Transfer=Yes
   Frame=6   Transfer=Yes
   Frame=7   Transfer=Yes
   Frame=8   Transfer=Yes
   Frame=9   Transfer=Yes
   Frame=10   Transfer=Yes
   Frame=11   Transfer=Yes
   Frame=12   Transfer=Yes
   Frame=13   Transfer=Yes
   Frame=14   Transfer=Yes
   Frame=15   Transfer=Yes
   Frame=16   Transfer=Yes
   Frame=17   Transfer=Yes
   Frame=18   Transfer=Yes
   Frame=19   Transfer=Yes
   Frame=20   Transfer=Yes
# ... 38 like lines cut
 
TABLE:  "FRAME OUTPUT STATION ASSIGNMENTS"
   Frame=1   StationType=MinNumSta   MinNumSta=3   AddAtElmInt=Yes   AddAtPtLoad=Yes
   Frame=2   StationType=MinNumSta   MinNumSta=3   AddAtElmInt=Yes   AddAtPtLoad=Yes
   Frame=3   StationType=MinNumSta   MinNumSta=3   AddAtElmInt=Yes   AddAtPtLoad=Yes
   Frame=4   StationType=MinNumSta   MinNumSta=3   AddAtElmInt=Yes   AddAtPtLoad=Yes
   Frame=5   StationType=MinNumSta   MinNumSta=3   AddAtElmInt=Yes   AddAtPtLoad=Yes
   Frame=6   StationType=MinNumSta   MinNumSta=3   AddAtElmInt=Yes   AddAtPtLoad=Yes
   Frame=7   StationType=MinNumSta   MinNumSta=3   AddAtElmInt=Yes   AddAtPtLoad=Yes
   Frame=8   StationType=MinNumSta   MinNumSta=3   AddAtElmInt=Yes   AddAtPtLoad=Yes
   Frame=9   StationType=MinNumSta   MinNumSta=3   AddAtElmInt=Yes   AddAtPtLoad=Yes
   Frame=10   StationType=MinNumSta   MinNumSta=3   AddAtElmInt=Yes   AddAtPtLoad=Yes
   Frame=11   StationType=MinNumSta   MinNumSta=3   AddAtElmInt=Yes   AddAtPtLoad=Yes
   Frame=12   StationType=MinNumSta   MinNumSta=3   AddAtElmInt=Yes   AddAtPtLoad=Yes
   Frame=13   StationType=MinNumSta   MinNumSta=3   AddAtElmInt=Yes   AddAtPtLoad=Yes
   Frame=14   StationType=MinNumSta   MinNumSta=3   AddAtElmInt=Yes   AddAtPtLoad=Yes
   Frame=15   StationType=MinNumSta   MinNumSta=3   AddAtElmInt=Yes   AddAtPtLoad=Yes
   Frame=16   StationType=MinNumSta   MinNumSta=3   AddAtElmInt=Yes   AddAtPtLoad=Yes
   Frame=17   StationType=MinNumSta   MinNumSta=3   AddAtElmInt=Yes   AddAtPtLoad=Yes
   Frame=18   StationType=MinNumSta   MinNumSta=3   AddAtElmInt=Yes   AddAtPtLoad=Yes
   Frame=19   StationType=MinNumSta   MinNumSta=3   AddAtElmInt=Yes   AddAtPtLoad=Yes
   Frame=20   StationType=MinNumSta   MinNumSta=3   AddAtElmInt=Yes   AddAtPtLoad=Yes
# ... 4 like lines cut
   Frame=25   StationType=MaxStaSpcg   MaxStaSpcg=0.5   AddAtElmInt=Yes   AddAtPtLoad=Yes
   Frame=26   StationType=MaxStaSpcg   MaxStaSpcg=0.5   AddAtElmInt=Yes   AddAtPtLoad=Yes
   Frame=27   StationType=MaxStaSpcg   MaxStaSpcg=0.5   AddAtElmInt=Yes   AddAtPtLoad=Yes
   Frame=28   StationType=MaxStaSpcg   MaxStaSpcg=0.5   AddAtElmInt=Yes   AddAtPtLoad=Yes
   Frame=29   StationType=MaxStaSpcg   MaxStaSpcg=0.5   AddAtElmInt=Yes   AddAtPtLoad=Yes
   Frame=30   StationType=MaxStaSpcg   MaxStaSpcg=0.5   AddAtElmInt=Yes   AddAtPtLoad=Yes
   Frame=31   StationType=MaxStaSpcg   MaxStaSpcg=0.5   AddAtElmInt=Yes   AddAtPtLoad=Yes
   Frame=32   StationType=MaxStaSpcg   MaxStaSpcg=0.5   AddAtElmInt=Yes   AddAtPtLoad=Yes
   Frame=33   StationType=MaxStaSpcg   MaxStaSpcg=0.5   AddAtElmInt=Yes   AddAtPtLoad=Yes
   Frame=34   StationType=MaxStaSpcg   MaxStaSpcg=0.5   AddAtElmInt=Yes   AddAtPtLoad=Yes
   Frame=35   StationType=MaxStaSpcg   MaxStaSpcg=0.5   AddAtElmInt=Yes   AddAtPtLoad=Yes
   Frame=36   StationType=MaxStaSpcg   MaxStaSpcg=0.5   AddAtElmInt=Yes   AddAtPtLoad=Yes
   Frame=37   StationType=MaxStaSpcg   MaxStaSpcg=0.5   AddAtElmInt=Yes   AddAtPtLoad=Yes
   Frame=38   StationType=MaxStaSpcg   MaxStaSpcg=0.5   AddAtElmInt=Yes   AddAtPtLoad=Yes
   Frame=39   StationType=MaxStaSpcg   MaxStaSpcg=0.5   AddAtElmInt=Yes   AddAtPtLoad=Yes
   Frame=40   StationType=MaxStaSpcg   MaxStaSpcg=0.5   AddAtElmInt=Yes   AddAtPtLoad=Yes
   Frame=41   StationType=MaxStaSpcg   MaxStaSpcg=0.5   AddAtElmInt=Yes   AddAtPtLoad=Yes
   Frame=42   StationType=MaxStaSpcg   MaxStaSpcg=0.5   AddAtElmInt=Yes   AddAtPtLoad=Yes
   Frame=43   StationType=MaxStaSpcg   MaxStaSpcg=0.5   AddAtElmInt=Yes   AddAtPtLoad=Yes
   Frame=44   StationType=MaxStaSpcg   MaxStaSpcg=0.5   AddAtElmInt=Yes   AddAtPtLoad=Yes
# ... 14 like lines cut
 
TABLE:  "FRAME SECTION ASSIGNMENTS"
   Frame=1   AutoSelect=N.A.   AnalSect="I beam"   MatProp=Default
   Frame=2   AutoSelect=N.A.   AnalSect=C50x50   MatProp=Default
   Frame=3   AutoSelect=N.A.   AnalSect="I beam"   MatProp=Default
   Frame=4   AutoSelect=N.A.   AnalSect=C50x50   MatProp=Default
   Frame=5   AutoSelect=N.A.   AnalSect="I beam"   MatProp=Default
   Frame=6   AutoSelect=N.A.   AnalSect=C50x50   MatProp=Default
   Frame=7   AutoSelect=N.A.   AnalSect="I beam"   MatProp=Default
   Frame=8   AutoSelect=N.A.   AnalSect=C50x50   MatProp=Default
   Frame=9   AutoSelect=N.A.   AnalSect="I beam"   MatProp=Default
   Frame=10   AutoSelect=N.A.   AnalSect=C50x50   MatProp=Default
   Frame=11   AutoSelect=N.A.   AnalSect="I beam"   MatProp=Default
   Frame=12   AutoSelect=N.A.   AnalSect=C50x50   MatProp=Default
   Frame=13   AutoSelect=N.A.   AnalSect="I beam"   MatProp=Default
   Frame=14   AutoSelect=N.A.   AnalSect=C50x50   MatProp=Default
   Frame=15   AutoSelect=N.A.   AnalSect="I beam"   MatProp=Default
   Frame=16   AutoSelect=N.A.   AnalSect=C50x50   MatProp=Default
   Frame=17   AutoSelect=N.A.   AnalSect="I beam"   MatProp=Default
   Frame=18   AutoSelect=N.A.   AnalSect=C50x50   MatProp=Default
   Frame=19   AutoSelect=N.A.   AnalSect="I beam"   MatProp=Default
   Frame=20   AutoSelect=N.A.   AnalSect=C50x50   MatProp=Default
   Frame=21   AutoSelect=N.A.   AnalSect="I beam"   MatProp=Default
   Frame=22   AutoSelect=N.A.   AnalSect=C50x50   MatProp=Default
   Frame=23   AutoSelect=N.A.   AnalSect="I beam"   MatProp=Default
   Frame=24   AutoSelect=N.A.   AnalSect=C50x50   MatProp=Default
   Frame=25   AutoSelect=N.A.   AnalSect=B100x20   MatProp=Default
   Frame=26   AutoSelect=N.A.   AnalSect=B100x20   MatProp=Default
   Frame=27   AutoSelect=N.A.   AnalSect=B100x20   MatProp=Default
   Frame=28   AutoSelect=N.A.   AnalSect=B100x20   MatProp=Default
   Frame=29   AutoSelect=N.A.   AnalSect=B100x20   MatProp=Default
   Frame=30   AutoSelect=N.A.   AnalSect=B100x20   MatProp=Default
   Frame=31   AutoSelect=N.A.   AnalSect=B100x20   MatProp=Default
   Frame=32   AutoSelect=N.A.   AnalSect=B100x20   MatProp=Default
   Frame=33   AutoSelect=N.A.   AnalSect=B100x20   MatProp=Default
   Frame=34   AutoSelect=N.A.   AnalSect=B100x20   MatProp=Default
   Frame=35   AutoSelect=N.A.   AnalSect=B100x20   MatProp=Default
   Frame=36   AutoSelect=N.A.   AnalSect=B100x20   MatProp=Default
   Frame=37   AutoSelect=N.A.   AnalSect=B100x20   MatProp=Default
   Frame=38   AutoSelect=N.A.   AnalSect=B100x20   MatProp=Default
   Frame=39   AutoSelect=N.A.   AnalSect=B100x20   MatProp=Default
   Frame=40   AutoSelect=N.A.   AnalSect=B100x20   MatProp=Default
   Frame=41   AutoSelect=N.A.   AnalSect=B100x20   MatProp=Default
   Frame=42   AutoSelect=N.A.   AnalSect=B100x20   MatProp=Default
   Frame=43   AutoSelect=N.A.   AnalSect=B100x20   MatProp=Default
   Frame=44   AutoSelect=N.A.   AnalSect=B100x20   MatProp=Default
# ... 14 like lines cut
 
TABLE:  "FRAME SECTION PROPERTIES 01 - GENERAL"
   SectionName=B100x20   Material=kareem   Shape=Rectangular   t3=1   t2=0.2   Area=0.2   TorsConst=0.00233071146666667   I33=0.0166666666666667   I22=0.000666666666666667   I23=0   AS2=0.166666666666667   AS3=0.166666666666667 _
        S33=0.0333333333333333   S22=0.00666666666666667   Z33=0.05   Z22=0.01   R33=0.288675134594813   R22=0.0577350269189626   Color=Green   FromFile=No   AMod=1   A2Mod=1   A3Mod=1   JMod=1   I2Mod=1   I3Mod=1   MMod=1   WMod=1
   SectionName=C50x50   Material=kareem   Shape=Rectangular   t3=0.5   t2=0.5   Area=0.25   TorsConst=0.00880208333333333   I33=0.00520833333333333   I22=0.00520833333333333   I23=0   AS2=0.208333333333333   AS3=0.208333333333333 _
        S33=0.0208333333333333   S22=0.0208333333333333   Z33=0.03125   Z22=0.03125   R33=0.144337567297406   R22=0.144337567297406   Color=Gray8Dark   FromFile=No   AMod=1   A2Mod=1   A3Mod=1   JMod=1   I2Mod=1   I3Mod=1   MMod=1   WMod=1
   SectionName="I beam"   Material=A992Fy50   Shape="I/Wide Flange"   t3=0.3   t2=0.1   tf=0.01   tw=0.006   t2b=0.1   tfb=0.009   Area=0.003586   TorsConst=7.41153633333333E-08   I33=5.11384348288715E-05   I22=1.58839133333333E-06   I23=0 _
        AS2=0.0018   AS3=0.00158333333333333   S33=0.000332752854339236   S22=3.17678266666667E-05   Z33=0.000394024833333333   Z22=5.0029E-05   R33=0.119417664486587   R22=0.021046196057007   Color=Yellow   FromFile=No   AMod=1   A2Mod=1 _
        A3Mod=1   JMod=1   I2Mod=1   I3Mod=1   MMod=1   WMod=1
   SectionName=W44X335   Material="Default Material"   Shape="I/Wide Flange"   t3=1.1176   t2=0.403859990310669   tf=0.0449579995155334   tw=0.0261619992733002   t2b=0.403859990310669   tfb=0.0449579995155334   Area=0.06354826 _
        TorsConst=3.10924862220825E-05   I33=0.01294479733616   I22=0.00049947771072   I23=0   AS2=0.0292386510031128   AS3=0.0302612290124512   S33=0.0231653495636364   S22=0.00247351915368382   Z33=0.02654704368   Z22=0.003867347104 _
        R33=0.451331656278829   R22=0.0886556104196641   Color=Magenta   FromFile=Yes   AMod=1   A2Mod=1   A3Mod=1   JMod=1   I2Mod=1   I3Mod=1   MMod=1   WMod=1   SectInFile=W44X335   FileName="C:\Program Files\Computers and Structures\SAP2000 19\AISC14.pro"
 
TABLE:  "FRAME SECTION PROPERTIES 13 - TIME DEPENDENT"
   SectionName=B100x20   TypeSize=Auto   AutoSFSize=0
   SectionName=C50x50   TypeSize=Auto   AutoSFSize=0
   SectionName="I beam"   TypeSize=Auto   AutoSFSize=0
   SectionName=W44X335   TypeSize=Auto   AutoSFSize=0
 
TABLE:  "FUNCTION - PLOT FUNCTIONS"
   PlotFunc="Input Energy"   Type=Energy   Component=Input   Mode=All
 
TABLE:  "FUNCTION - POWER SPECTRAL DENSITY - USER"
   Name=UNIFPSD   Frequency=0   Value=1
   Name=UNIFPSD   Frequency=1   Value=1
 
TABLE:  "FUNCTION - RESPONSE SPECTRUM - USER"
   Name=UNIFRS   Period=0   Accel=1   FuncDamp=0.05
   Name=UNIFRS   Period=1   Accel=1
 
TABLE:  "FUNCTION - STEADY STATE - USER"
   Name=UNIFSS   Frequency=0   Value=1
   Name=UNIFSS   Frequency=1   Value=1
 
TABLE:  "FUNCTION - TIME HISTORY - USER"
   Name=RAMPTH   Time=0   Value=0
   Name=RAMPTH   Time=1   Value=1
   Name=RAMPTH   Time=4   Value=1
   Name=UNIFTH   Time=0   Value=1
   Name=UNIFTH   Time=1   Value=1
 
TABLE:  "GROUPS 1 - DEFINITIONS"
   GroupName=ALL   Selection=Yes   SectionCut=Yes   Steel=Yes   Concrete=Yes   Aluminum=Yes   ColdFormed=Yes   Stage=Yes   Bridge=Yes   AutoSeismic=No   AutoWind=No   SelDesSteel=No   SelDesAlum=No   SelDesCold=No   MassWeight=Yes   Color=Red
 
TABLE:  "JOINT COORDINATES"
   Joint=1   CoordSys=GLOBAL   CoordType=Cartesian   XorR=-9   Y=-6   Z=0   SpecialJt=Yes   GUID=452be3f1-24cb-4583-960b-e2c2deb65275
   Joint=2   CoordSys=GLOBAL   CoordType=Cartesian   XorR=-9   Y=-6   Z=3   SpecialJt=Yes   GUID=452be3f1-24cb-4583-960b-e2c2deb65275
   Joint=3   CoordSys=GLOBAL   CoordType=Cartesian   XorR=-9   Y=-6   Z=6   SpecialJt=Yes   GUID=452be3f1-24cb-4583-960b-e2c2deb65275
   Joint=4   CoordSys=GLOBAL   CoordType=Cartesian   XorR=-9   Y=0   Z=0   SpecialJt=Yes   GUID=452be3f1-24cb-4583-960b-e2c2deb65275
   Joint=5   CoordSys=GLOBAL   CoordType=Cartesian   XorR=-9   Y=0   Z=3   SpecialJt=Yes   GUID=452be3f1-24cb-4583-960b-e2c2deb65275
   Joint=6   CoordSys=GLOBAL   CoordType=Cartesian   XorR=-9   Y=0   Z=6   SpecialJt=Yes   GUID=452be3f1-24cb-4583-960b-e2c2deb65275
   Joint=7   CoordSys=GLOBAL   CoordType=Cartesian   XorR=-9   Y=6   Z=0   SpecialJt=Yes   GUID=452be3f1-24cb-4583-960b-e2c2deb65275
   Joint=8   CoordSys=GLOBAL   CoordType=Cartesian   XorR=-9   Y=6   Z=3   SpecialJt=Yes   GUID=452be3f1-24cb-4583-960b-e2c2deb65275
   Joint=9   CoordSys=GLOBAL   CoordType=Cartesian   XorR=-9   Y=6   Z=6   SpecialJt=Yes   GUID=452be3f1-24cb-4583-960b-e2c2deb65275
   Joint=10   CoordSys=GLOBAL   CoordType=Cartesian   XorR=-3   Y=-6   Z=0   SpecialJt=Yes   GUID=452be3f1-24cb-4583-960b-e2c2deb65275
   Joint=11   CoordSys=GLOBAL   CoordType=Cartesian   XorR=-3   Y=-6   Z=3   SpecialJt=Yes   GUID=452be3f1-24cb-4583-960b-e2c2deb65275
   Joint=12   CoordSys=GLOBAL   CoordType=Cartesian   XorR=-3   Y=-6   Z=6   SpecialJt=Yes   GUID=452be3f1-24cb-4583-960b-e2c2deb65275
   Joint=13   CoordSys=GLOBAL   CoordType=Cartesian   XorR=-3   Y=0   Z=0   SpecialJt=Yes   GUID=452be3f1-24cb-4583-960b-e2c2deb65275
   Joint=14   CoordSys=GLOBAL   CoordType=Cartesian   XorR=-3   Y=0   Z=3   SpecialJt=Yes   GUID=452be3f1-24cb-4583-960b-e2c2deb65275
   Joint=15   CoordSys=GLOBAL   CoordType=Cartesian   XorR=-3   Y=0   Z=6   SpecialJt=Yes   GUID=452be3f1-24cb-4583-960b-e2c2deb65275
   Joint=16   CoordSys=GLOBAL   CoordType=Cartesian   XorR=-3   Y=6   Z=0   SpecialJt=Yes   GUID=452be3f1-24cb-4583-960b-e2c2deb65275
   Joint=17   CoordSys=GLOBAL   CoordType=Cartesian   XorR=-3   Y=6   Z=3   SpecialJt=Yes   GUID=452be3f1-24cb-4583-960b-e2c2deb65275
   Joint=18   CoordSys=GLOBAL   CoordType=Cartesian   XorR=-3   Y=6   Z=6   SpecialJt=Yes   GUID=452be3f1-24cb-4583-960b-e2c2deb65275
   Joint=19   CoordSys=GLOBAL   CoordType=Cartesian   XorR=3   Y=-6   Z=0   SpecialJt=Yes   GUID=452be3f1-24cb-4583-960b-e2c2deb65275
   Joint=20   CoordSys=GLOBAL   CoordType=Cartesian   XorR=3   Y=-6   Z=3   SpecialJt=Yes   GUID=452be3f1-24cb-4583-960b-e2c2deb65275
# ... 180 like lines cut
 
TABLE:  "JOINT LOADS - FORCE"
   Joint=8   LoadPat=DEAD   CoordSys=GLOBAL   F1=10   F2=20   F3=30   M1=40   M2=50   M3=60   GUID=126b256a-8fd7-46e9-906d-04bbd9b41121
 
TABLE:  "JOINT PATTERN DEFINITIONS"
   Pattern=Default
 
TABLE:  "JOINT RESTRAINT ASSIGNMENTS"
   Joint=1   U1=Yes   U2=Yes   U3=Yes   R1=Yes   R2=Yes   R3=Yes
   Joint=4   U1=Yes   U2=Yes   U3=Yes   R1=No   R2=No   R3=No
   Joint=7   U1=No   U2=No   U3=Yes   R1=No   R2=No   R3=No
   Joint=10   U1=Yes   U2=Yes   U3=Yes   R1=Yes   R2=Yes   R3=Yes
   Joint=13   U1=Yes   U2=Yes   U3=Yes   R1=No   R2=No   R3=No
   Joint=16   U1=No   U2=No   U3=Yes   R1=No   R2=No   R3=No
   Joint=19   U1=Yes   U2=Yes   U3=Yes   R1=Yes   R2=Yes   R3=Yes
   Joint=22   U1=Yes   U2=Yes   U3=Yes   R1=No   R2=No   R3=No
   Joint=25   U1=No   U2=No   U3=Yes   R1=No   R2=No   R3=No
   Joint=28   U1=Yes   U2=Yes   U3=Yes   R1=Yes   R2=Yes   R3=Yes
   Joint=31   U1=Yes   U2=Yes   U3=Yes   R1=No   R2=No   R3=No
   Joint=34   U1=No   U2=No   U3=Yes   R1=No   R2=No   R3=No
 
TABLE:  "LOAD CASE DEFINITIONS"
   Case=DEAD   Type=LinStatic   InitialCond=Zero   DesTypeOpt="Prog Det"   DesignType=Dead   DesActOpt="Prog Det"   DesignAct=Non-Composite   AutoType=None   RunCase=Yes   GUID=a188387c-798f-467c-8e97-dedcd07e2540
   Case=MODAL   Type=LinModal   InitialCond=Zero   DesTypeOpt="Prog Det"   DesignType=Other   DesActOpt="Prog Det"   DesignAct=Other   AutoType=None   RunCase=Yes   GUID=528f5c03-686d-4d5e-a15d-750255937bce
   Case=DLOAD   Type=LinStatic   InitialCond=Zero   DesTypeOpt="Prog Det"   DesignType=Dead   DesActOpt="Prog Det"   DesignAct=Non-Composite   AutoType=None   RunCase=Yes   GUID=dd28b26f-76c8-4936-a5c5-d53ab949a50d
   Case=LLOAD   Type=LinStatic   InitialCond=Zero   DesTypeOpt="Prog Det"   DesignType=Live   DesActOpt="Prog Det"   DesignAct="Short-Term Composite"   AutoType=None   RunCase=Yes   GUID=1538804a-5976-4f83-bd87-4ad0f0904272
 
TABLE:  "LOAD PATTERN DEFINITIONS"
   LoadPat=DEAD   DesignType=Dead   SelfWtMult=1   GUID=f66abef9-fb08-4d25-9c64-b71d2a386e06
   LoadPat=DLOAD   DesignType=Dead   SelfWtMult=1   GUID=6391eb2d-c811-462c-9bb3-db737d4cad4f
   LoadPat=LLOAD   DesignType=Live   SelfWtMult=0   GUID=18ab4736-702c-4da2-9bdb-14682fbad99d
 
TABLE:  "MASS SOURCE"
   MassSource=MSSSRC1   Elements=Yes   Masses=Yes   Loads=No   IsDefault=Yes
 
TABLE:  "MATERIAL PROPERTIES 01 - GENERAL"
   Material=4000Psi   Type=Concrete   SymType=Isotropic   TempDepend=No   Color=Green   Notes="Customary f'c 4000 psi 25/02/2018 03:13:24 "
   Material=A615Gr60   Type=Rebar   SymType=Uniaxial   TempDepend=No   Color=Blue   Notes="ASTM A615 Grade 60 25/02/2018 03:13:27 "
   Material=A992Fy50   Type=Steel   SymType=Isotropic   TempDepend=No   Color=Blue   Notes="ASTM A992 Grade 50 25/02/2018 03:13:24 "
   Material="Default Material"   Type=Other   SymType=Isotropic   TempDepend=No   Color=Red
   Material=kareem   Type=Other   SymType=Isotropic   TempDepend=No   Color=Cyan
 
TABLE:  "MATERIAL PROPERTIES 02 - BASIC MECHANICAL PROPERTIES"
   Material=4000Psi   UnitWeight=23.5631216161854   UnitMass=2.40276960558926   E1=24855578.0600518   G12=10356490.8583549   U12=0.2   A1=9.89999952793124E-06
   Material=A615Gr60   UnitWeight=76.9728639422648   UnitMass=7.84904737995992   E1=199947978.795958   A1=1.16999994421006E-05
   Material=A992Fy50   UnitWeight=76.972862251931   UnitMass=7.8490474   E1=199947980   G12=76903069.2307692   U12=0.3   A1=1.1699999E-05
   Material="Default Material"   UnitWeight=23.563121614979   UnitMass=2.40276960611018   E1=24821128.4022568   G12=10342136.8342737   U12=0.2   A1=9.89999952793124E-06
   Material=kareem   UnitWeight=50.00000038136   UnitMass=5.098581   E1=200000000   G12=71428571.4285714   U12=0.4   A1=6E-06
 
TABLE:  "MATERIAL PROPERTIES 03A - STEEL DATA"
   Material=A992Fy50   Fy=344737.89   Fu=448159.26   EffFy=379211.683923368   EffFu=492975.189100378   SSCurveOpt=Simple   SSHysType=Kinematic   SHard=0.015   SMax=0.11   SRup=0.17   FinalSlope=-0.1
 
TABLE:  "MATERIAL PROPERTIES 03B - CONCRETE DATA"
   Material=4000Psi   Fc=27579.0315580631   eFc=27579.0315580631   LtWtConc=No   SSCurveOpt=Mander   SSHysType=Takeda   SFc=0.00221914   SCap=0.005   FinalSlope=-0.1   FAngle=0   DAngle=0
 
TABLE:  "MATERIAL PROPERTIES 03E - REBAR DATA"
   Material=A615Gr60   Fy=413685.473370947   Fu=620528.21005642   EffFy=455054.020708041   EffFu=682581.031062062   SSCurveOpt=Simple   SSHysType=Kinematic   SHard=0.01   SCap=0.09   FinalSlope=-0.1   UseCTDef=No
 
TABLE:  "MATERIAL PROPERTIES 03G - OTHER DATA"
   Material="Default Material"   SSHysType=Takeda   FAngle=0   DAngle=0
   Material=kareem   SSHysType=Takeda   FAngle=0   DAngle=0
 
TABLE:  "MATERIAL PROPERTIES 04 - USER STRESS-STRAIN CURVES"
   Material="Default Material"   Strain=-4.02882569959663E-08   Stress=-1
   Material="Default Material"   Strain=0   Stress=0   PointID=A
   Material="Default Material"   Strain=4.02882569959663E-08   Stress=1
   Material=kareem   Strain=-5E-09   Stress=-1
   Material=kareem   Strain=0   Stress=0   PointID=A
   Material=kareem   Strain=5E-09   Stress=1
 
TABLE:  "MATERIAL PROPERTIES 06 - DAMPING PARAMETERS"
   Material=4000Psi   ModalRatio=0   VisMass=0   VisStiff=0   HysMass=0   HysStiff=0
   Material=A615Gr60   ModalRatio=0   VisMass=0   VisStiff=0   HysMass=0   HysStiff=0
   Material=A992Fy50   ModalRatio=0   VisMass=0   VisStiff=0   HysMass=0   HysStiff=0
   Material="Default Material"   ModalRatio=0   VisMass=0   VisStiff=0   HysMass=0   HysStiff=0
   Material=kareem   ModalRatio=0   VisMass=0   VisStiff=0   HysMass=0   HysStiff=0
 
TABLE:  "OPTIONS - COLORS - DISPLAY"
   DeviceType=Screen   Points=Blue   LinesFrame=Blue   LinesFrmDL=Blue   LinesCable=Green   LinesTendon=Green   SpringLinks=Green   Restraints=Green   Releases=Green   Axes=Cyan   Text=Black   ShadowLines=Gray8Dark   GuideLines=Gray8Dark _
        Highlight=Red   Selection=10504778   AreaFillBot=Red   AreaFillTop=16744703   AreaFillSd=Red   AreaEdge=DarkRed   SolidF1=Red   SolidF2=Blue   SolidF3=Green   SolidF4=Yellow   SolidF5=White   SolidF6=Cyan   SolidEdge=DarkRed _
        Floor=Gray4   Background=White   BGLowLeft=White   BGLowRight=White   BGUpRight=White   Darkness=0
   DeviceType=Printer   Points=Gray8Dark   LinesFrame=Black   LinesFrmDL=Gray4   LinesCable=Black   LinesTendon=Black   SpringLinks=Gray8Dark   Restraints=Gray8Dark   Releases=Gray4   Axes=Black   Text=Black   ShadowLines=Gray4 _
        GuideLines=Gray4   Highlight=Black   Selection=Black   AreaFillBot=Gray4   AreaFillTop=Gray8Dark   AreaFillSd=Gray4   AreaEdge=Black   SolidF1=Gray1Light   SolidF2=Gray2   SolidF3=Gray3   SolidF4=Gray4   SolidF5=Gray5 _
        SolidF6=Gray6   SolidEdge=Black   Floor=Gray4   Background=White   BGLowLeft=White   BGLowRight=White   BGUpRight=White   Darkness=0.5
   DeviceType="Color Printer"   Points=Blue   LinesFrame=Blue   LinesFrmDL=Blue   LinesCable=Green   LinesTendon=Green   SpringLinks=Green   Restraints=Green   Releases=Green   Axes=Cyan   Text=Black   ShadowLines=Gray8Dark _
        GuideLines=Gray8Dark   Highlight=Red   Selection=10504778   AreaFillBot=Red   AreaFillTop=16744703   AreaFillSd=Red   AreaEdge=DarkRed   SolidF1=Red   SolidF2=Blue   SolidF3=Green   SolidF4=Yellow   SolidF5=White   SolidF6=Cyan _
        SolidEdge=DarkRed   Floor=Gray4   Background=White   BGLowLeft=White   BGLowRight=White   BGUpRight=White   Darkness=0.5
 
TABLE:  "OPTIONS - COLORS - OUTPUT"
   DeviceType=Screen   Contour1=13107400   Contour2=6553828   Contour3=Red   Contour4=16639   Contour5=Orange   Contour6=43775   Contour7=54527   Contour8=Yellow   Contour9=65408   Contour10=Green   Contour11=8453888   Contour12=Cyan _
        Contour13=16755200   Contour14=16733440   Contour15=Blue   Transpare=0.5   Ratio1=Cyan   Ratio2=Green   Ratio3=Yellow   Ratio4=Orange   Ratio5=Red   RatioNotD=Gray4   RatioNotC=Red   RatioVal1=0.5   RatioVal2=0.7   RatioVal3=0.9 _
        RatioVal4=1   DFillPos=Blue   DFillNeg=Red   DFillRPos=Green   DFillRNeg=Green
   DeviceType=Printer   Contour1=Black   Contour2=3158064   Contour3=4210752   Contour4=5263440   Contour5=6316128   Contour6=7368816   Contour7=Gray8Dark   Contour8=Gray7   Contour9=Gray6   Contour10=Gray5   Contour11=Gray4 _
        Contour12=Gray3   Contour13=Gray2   Contour14=Gray1Light   Contour15=White   Transpare=0   Ratio1=Gray2   Ratio2=Gray4   Ratio3=Gray8Dark   Ratio4=4210752   Ratio5=Black   RatioNotD=Gray4   RatioNotC=Black   RatioVal1=0.5 _
        RatioVal2=0.7   RatioVal3=0.9   RatioVal4=1   DFillPos=Gray8Dark   DFillNeg=Gray8Dark   DFillRPos=4210752   DFillRNeg=4210752
   DeviceType="Color Printer"   Contour1=13107400   Contour2=6553828   Contour3=Red   Contour4=16639   Contour5=Orange   Contour6=43775   Contour7=54527   Contour8=Yellow   Contour9=65408   Contour10=Green   Contour11=8453888 _
        Contour12=Cyan   Contour13=16755200   Contour14=16733440   Contour15=Blue   Transpare=0   Ratio1=Cyan   Ratio2=Green   Ratio3=Yellow   Ratio4=Orange   Ratio5=Red   RatioNotD=Gray4   RatioNotC=Red   RatioVal1=0.5   RatioVal2=0.7 _
        RatioVal3=0.9   RatioVal4=1   DFillPos=Blue   DFillNeg=Red   DFillRPos=Green   DFillRNeg=Green
 
TABLE:  "PREFERENCES - ALUMINUM DESIGN - AA-ASD 2000"
   THDesign=Envelopes   FrameType="Moment Frame"   SRatioLimit=1   MaxIter=1   LatFact=1.33333333333333   UseLatFact=No   Bridge=No
 
TABLE:  "PREFERENCES - COLD FORMED DESIGN - AISI-ASD96"
   THDesign=Envelopes   FrameType="Braced Frame"   SRatioLimit=1   MaxIter=1   OmegaBS=1.67   OmegaBUS=1.67   OmegaBLTB=1.67   OmegaVS=1.67   OmegaVNS=1.5   OmegaT=1.67   OmegaC=1.8
 
TABLE:  "PREFERENCES - CONCRETE DESIGN - ACI 318-14"
   THDesign=Envelopes   NumCurves=24   NumPoints=11   MinEccen=Yes   PatLLF=0.75   UFLimit=0.95   SeisCat=D   Rho=1   Sds=0.5   PhiT=0.9   PhiCTied=0.65   PhiCSpiral=0.75   PhiV=0.75   PhiVSeismic=0.6   PhiVJoint=0.85
 
TABLE:  "PREFERENCES - DIMENSIONAL"
   MergeTol=0.001   FineGrid=0.25   Nudge=0.25   SelectTol=3   SnapTol=12   SLineThick=1   PLineThick=4   MaxFont=8   MinFont=3   AutoZoom=10   ShrinkFact=70   TextFileLen=240
 
TABLE:  "PREFERENCES - STEEL DESIGN - AISC 360-10"
   THDesign=Envelopes   FrameType=SMF   PatLLF=0.75   SRatioLimit=0.95   MaxIter=1   SDC=D   SeisCode=Yes   SeisLoad=Yes   ImpFactor=1   SystemRho=1   SystemSds=0.5   SystemR=8   SystemCd=5.5   Omega0=3   Provision=LRFD _
        AMethod="Direct Analysis"   SOMethod="General 2nd Order"   SRMethod="Tau-b Fixed"   NLCoeff=0.002   PhiB=0.9   PhiC=0.9   PhiTY=0.9   PhiTF=0.75   PhiV=0.9   PhiVRolledI=1   PhiVT=0.9   PlugWeld=Yes   HSSWelding=ERW   HSSReduceT=No _
        CheckDefl=No   DLRat=120   SDLAndLLRat=120   LLRat=360   TotalRat=240   NetRat=240
 
TABLE:  "PROGRAM CONTROL"
   ProgramName=SAP2000   Version=19.2.0   CurrUnits="KN, m, C"   SteelCode="AISC 360-10"   ConcCode="ACI 318-14"   AlumCode="AA-ASD 2000"   ColdCode=AISI-ASD96   RegenHinge=Yes
 
TABLE:  "PROJECT INFORMATION"
   Item="Company Name"
   Item="Client Name"
   Item="Project Name"
   Item="Project Number"
   Item="Model Name"
   Item="Model Description"
   Item="Revision Number"
   Item="Frame Type"
   Item=Engineer
   Item=Checker
   Item=Supervisor
   Item="Issue Code"
   Item="Design Code"
 
TABLE:  "REBAR SIZES"
   RebarID=#2   Area=3.2258E-05   Diameter=0.00635
   RebarID=#3   Area=7.09675996154547E-05   Diameter=0.009525
   RebarID=#4   Area=0.000129032001922727   Diameter=0.0127
   RebarID=#5   Area=0.000199999601538181   Diameter=0.015875
   RebarID=#6   Area=0.000283870398461819   Diameter=0.01905
   RebarID=#7   Area=0.000387096015381813   Diameter=0.022225
   RebarID=#8   Area=0.000509676413843632   Diameter=0.0254
   RebarID=#9   Area=0.00064516   Diameter=0.0286512005329132
   RebarID=#10   Area=0.00081935318769455   Diameter=0.0322579995155334
   RebarID=#11   Area=0.00100644956308365   Diameter=0.0358139991521835
   RebarID=#14   Area=0.00145161   Diameter=0.0430021989583969
   RebarID=#18   Area=0.00258064   Diameter=0.0573277992248535
   RebarID=10M   Area=0.000100000002655387   Diameter=0.011300000667572
   RebarID=15M   Area=0.000200000005310774   Diameter=0.0159999999403954
   RebarID=20M   Area=0.000300000017579794   Diameter=0.0194999997854233
   RebarID=25M   Area=0.000500000022890568   Diameter=0.0252000016093254
   RebarID=30M   Area=0.000700000008974075   Diameter=0.0299000008821487
   RebarID=35M   Area=0.00100000004578114   Diameter=0.0357000011444092
   RebarID=45M   Area=0.00150000010712624   Diameter=0.0437000003576279
   RebarID=55M   Area=0.00250000007599831   Diameter=0.0564000033855438
   RebarID=6d   Area=2.83000004149973E-05   Diameter=0.006000000166893
   RebarID=8d   Area=5.02999995571375E-05   Diameter=0.00799999997019768
   RebarID=10d   Area=7.85000013634562E-05   Diameter=0.00999999977350235
   RebarID=12d   Area=0.000113000009249449   Diameter=0.012000000333786
   RebarID=14d   Area=0.000154000010818839   Diameter=0.0140000008940697
   RebarID=16d   Area=0.000201000015431643   Diameter=0.0159999999403954
   RebarID=20d   Area=0.000314000005453825   Diameter=0.0199999995470047
   RebarID=25d   Area=0.000491000008711815   Diameter=0.0250000001907349
   RebarID=26d   Area=0.000531000029001236   Diameter=0.0259999997138977
   RebarID=28d   Area=0.000616000043275356   Diameter=0.0280000017881393
   RebarID=N12   Area=0.000113000009249449   Diameter=0.012000000333786
   RebarID=N16   Area=0.000201000015431643   Diameter=0.0159999999403954
   RebarID=N20   Area=0.000314000005453825   Diameter=0.0199999995470047
   RebarID=N24   Area=0.000452000036997795   Diameter=0.024000000667572
   RebarID=N28   Area=0.000616000043275356   Diameter=0.0280000017881393
   RebarID=N32   Area=0.00080400006172657   Diameter=0.0319999998807907
   RebarID=N36   Area=0.00102000001747131   Diameter=0.036000001001358
 
END TABLE DATA
