STAAD SPACE
SET z UP
UNIT METER KN
JOINT COORDINATES
61 -9 -6 0;77 -9 -6 3;82 -9 -6 6;87 -9 0 0;93 -9 0 3;98 -9 0 6;103 -9 6 0;109 -9 6 3;117 -9 6 6;122 -3 -6 0;127 -3 -6 3;132 -3 -6 6;137 -3 0 0;142 -3 0 3;147 -3 0 6;152 -3 6 0;157 -3 6 3;162 -3 6 6;167 3 -6 0;172 3 -6 3;177 3 -6 6;182 3 0 0;187 3 0 3;192 3 0 6;197 3 6 0;202 3 6 3;207 3 6 6;212 9 -6 0;217 9 -6 3;222 9 -6 6;227 9 0 0;232 9 0 3;237 9 0 6;242 9 6 0;247 9 6 3;252 9 6 6;257 -7.8 0 6;262
MEMBER INCIDENCES
1077 61 77;1099 77 82;1116 87 93;1124 93 98;1132 103 109;1140 109 117;1148 122 127;1156 127 132;1164 137 142;1172 142 147;1180 152 157;1188 157 162;1196 167 172;1204 172 177;1212 182 187;1220 187 192;1228 197 202;1236 202 207;1244 212 217;1252 217 222;1260 227 232;1268 232 237;1276 242 247;1284 247 252;1292 77 127;1302 82 132;1310 127 172;1318 132 177;1326 172 217;1334 177 222;1342 93 142;1350 98 
ELEMENT INCIDENCES SHELL
1569 98 257 262 267;1592 267 262 272 277;1613 277 272 282 287;1634 287 282 292 297;1655 297 292 302 117;1676 257 307 312 262;1697 262 312 317 272;1718 272 317 322 282;1739 282 322 327 292;1760 292 327 332 302;1781 307 337 342 312;1802 312 342 347 317;1823 317 347 352 322;1844 322 352 357 327;1865 327 357 362 332;1886 337 367 372 342;1907 342 372 377 347;1928 347 377 382 352;1949 352 382 387 357;19
ELEMENT PROPERTY
1569 1592 1613 1634 1655 1676 1697 1718 1739 1760 1781 1802 1823 1844 1865 1886 1907 1928 1949 1970 1991 2012 2033 2054 2075 2096 2117 2138 2159 2180 2201 2222 2243 2264 2285 2306 2327 2348 2369 2390 2411 2432 2453 2474 2495 2516 2537 2558 2579 2600 2621 2645 2669 2693 2717 2741 2765 2789 2813 2837 2861 2885 2909 2933 2957 2981 3005 3029 3053 3077 3101 3125 3149 3173 3197 3221 3245 3269 3293 3317 
DEFINE MATERIAL START
ISOTROPIC A992Fy50
E 0
POISSON 0
DENSITY 0
G 0
ALPHA 0
ISOTROPIC kareem
E 0
POISSON 0
DENSITY 0
G 0
ALPHA 0
END DEFINE MATERIAL
MEMBER PROPERTY
1077 1116 1132 1148 1164 1180 1196 1212 1228 1244 1260 1276 TAPPERED 0.3 0.006 0.3 0.1 0.01 0.1 0.009
1099 1124 1140 1156 1172 1188 1204 1220 1236 1252 1268 1284 PRIS YD 0.5 ZD 0.5
1292 1302 1310 1318 1326 1334 1342 1350 1358 1366 1374 1382 1390 1398 1409 1417 1425 1433 1441 1449 1457 1465 1473 1481 1489 1497 1505 1513 1521 1529 1537 1545 1553 1561 PRIS YD 1 ZD 0.2
CONSTANTS
MATERIAL A992Fy50 MEMB 1077 1116 1132 1148 1164 1180 1196 1212 1228 1244 1260 1276 1569 1592 1613 1634 1655 1676 1697 1718 1739 1760 1781 1802 1823 1844 1865 1886 1907 1928 1949 1970 1991 2012 2033 2054 2075 2096 2117 2138 2159 2180 2201 2222 2243 2264 2285 2306 2327 2348 2369 2390 2411 2432 2453 2474 2495 2516 2537 2558 2579 2600 2621 2645 2669 2693 2717 2741 2765 2789 2813 2837 2861 2885 2909 29
MATERIAL kareem ALL
SUPPORTS
61 122 167 212 FIXED
87 137 182 227 FIXED BUT MX MY MZ
103 152 197 242 FIXED BUT FX FY MX MY MZ
LOAD 63 LOADTYPE Dead TITLE DEAD
JOINT LOAD
109 FX 10 FY 20 FZ 30 MX 40 MY 50 MZ 60
MEMBER LOAD
1398 UNI GZ -10
LOAD 65 LOADTYPE Dead TITLE DLOAD
LOAD 67 LOADTYPE Live TITLE LLOAD
ELEMENT LOAD
2621 2645 2669 2693 2717 2741 2765 2789 2813 2837 2861 2885 2909 2933 2957 2981 3005 3029 3053 3077 3101 3125 3149 3173 3197 3221 3245 3269 3293 3317 3341 3365 3389 3413 3437 3461 3485 3509 3533 3557 3581 3605 3629 3653 3677 3701 3725 3749 3773 3797 PR -50
LOAD COMB 4 FirstCombo
63 1.8 67 2.2
FINISH
