File E:\Courses\Codes\CONVER~1\NEWFOL~1\SIMPLE~1.$2k was saved on m/d/yy at h:mm:ss
 
TABLE:  "ACTIVE DEGREES OF FREEDOM"
   UX=Yes   UY=Yes   UZ=Yes   RX=Yes   RY=Yes   RZ=Yes
 
TABLE:  "ANALYSIS OPTIONS"
   Solver=Advanced   SolverProc=Auto   Force32Bit=No   StiffCase=None   GeomMod=None   HingeOpt="In Elements"
 
TABLE:  "MATERIAL PROPERTIES 02 - BASIC MECHANICAL PROPERTIES"
   Material=4000Psi   UnitWeight=2.40276966513304   UnitMass=0.245014307299924   E1=2534563.54148831   G12=1056068.1422868   U12=0.2   A1=9.89999952793124E-06
   Material=A416Gr270   UnitWeight=7.84904757236607   UnitMass=0.80038007068661   E1=20037484.3449687   A1=1.16999994421006E-05
   Material=A615Gr60   UnitWeight=7.84904757236607   UnitMass=0.80038007068661   E1=20389019.1580383   A1=1.16999994421006E-05
   Material=A992Fy50   UnitWeight=7.84904757236607   UnitMass=0.80038007068661   E1=20389019.1580383   G12=7841930.44539935   U12=0.3   A1=1.16999994421006E-05
   Material=BIMConcrete   UnitWeight=2.4999999681825   UnitMass=0.254929044811123   E1=2500000.00010031   G12=1041666.66670846   U12=0.2   A1=9.8999995E-06
   Material="Default Material"   UnitWeight=2.40276966501002   UnitMass=0.245014307353044   E1=2531050.65410131   G12=1054604.43920888   U12=0.2   A1=9.89999952793124E-06
 
TABLE:  "AREA LOADS - UNIFORM"
   Area=18   LoadPat=DEAD   CoordSys=GLOBAL   Dir=Z   UnifLoad=-0.40000000001605
   Area=18   LoadPat=LIVE   CoordSys=GLOBAL   Dir=Z   UnifLoad=-0.600000000024074
   Area=19   LoadPat=DEAD   CoordSys=GLOBAL   Dir=Z   UnifLoad=-0.40000000001605
   Area=19   LoadPat=LIVE   CoordSys=GLOBAL   Dir=Z   UnifLoad=-0.600000000024074
   Area=22   LoadPat=DEAD   CoordSys=GLOBAL   Dir=Z   UnifLoad=-0.40000000001605
   Area=22   LoadPat=LIVE   CoordSys=GLOBAL   Dir=Z   UnifLoad=-0.600000000024074
   Area=23   LoadPat=DEAD   CoordSys=GLOBAL   Dir=Z   UnifLoad=-0.40000000001605
   Area=23   LoadPat=LIVE   CoordSys=GLOBAL   Dir=Z   UnifLoad=-0.600000000024074
 
TABLE:  "AREA SECTION ASSIGNMENTS"
   Area=2   Section="BIMConcrete 0.250"   MatProp=Default
   Area=3   Section="BIMConcrete 0.250"   MatProp=Default
   Area=4   Section="BIMConcrete 0.250"   MatProp=Default
   Area=5   Section="BIMConcrete 0.250"   MatProp=Default
   Area=18   Section="BIMConcrete 0.200"   MatProp=Default
   Area=19   Section="BIMConcrete 0.200"   MatProp=Default
   Area=22   Section="BIMConcrete 0.200"   MatProp=Default
   Area=23   Section="BIMConcrete 0.200"   MatProp=Default
 
TABLE:  "AREA SECTION PROPERTIES"
   Section="BIMConcrete 0.200"   Material=BIMConcrete   MatAngle=0   AreaType=Shell   Type=Shell-Thin   DrillDOF=Yes   Thickness=0.2   BendThick=0.2   Color=Red   F11Mod=1   F22Mod=1   F12Mod=1   M11Mod=1   M22Mod=1   M12Mod=1   V13Mod=1 _
        V23Mod=1   MMod=1   WMod=1
   Section="BIMConcrete 0.250"   Material=BIMConcrete   MatAngle=0   AreaType=Shell   Type=Shell-Thin   DrillDOF=Yes   Thickness=0.25   BendThick=0.25   Color=Blue   F11Mod=1   F22Mod=1   F12Mod=1   M11Mod=1   M22Mod=1   M12Mod=1   V13Mod=1 _
        V23Mod=1   MMod=1   WMod=1
 
TABLE:  "AREA SECTION PROPERTY DESIGN PARAMETERS"
   Section="BIMConcrete 0.200"   RebarMat=None   RebarOpt=Default
   Section="BIMConcrete 0.250"   RebarMat=None   RebarOpt=Default
 
TABLE:  "AREA SECTION PROPERTY - TIME DEPENDENT"
   Section="BIMConcrete 0.200"   TypeSize=Auto   AutoSFSize=1
   Section="BIMConcrete 0.250"   TypeSize=Auto   AutoSFSize=1
 
TABLE:  "AUTO WAVE 3 - WAVE CHARACTERISTICS - GENERAL"
   WaveChar=Default   WaveType="From Theory"   KinFactor=1   SWaterDepth=45   WaveHeight=18   WavePeriod=12   WaveTheory=Linear
 
TABLE:  "CASE - MODAL 1 - GENERAL"
   Case=MODAL   ModeType=Eigen   MaxNumModes=12   MinNumModes=1   EigenShift=0   EigenCutoff=0   EigenTol=1E-09   AutoShift=Yes
 
TABLE:  "CASE - STATIC 1 - LOAD ASSIGNMENTS"
   Case=DEAD   LoadType="Load pattern"   LoadName=DEAD   LoadSF=1
   Case=DEADLOAD   LoadType="Load pattern"   LoadName=DEAD   LoadSF=1
   Case=LIVELOAD   LoadType="Load pattern"   LoadName=LIVE   LoadSF=1
 
TABLE:  "COMBINATION DEFINITIONS"
   ComboName=ULTIMATE   ComboType="Linear Add"   AutoDesign=No   CaseName=DEADLOAD   ScaleFactor=1.4   SteelDesign=None   ConcDesign=None   AlumDesign=None   ColdDesign=None   GUID=3f4e5c60-e89d-4a47-9450-aab6475fe6fc
   ComboName=ULTIMATE   CaseName=LIVELOAD   ScaleFactor=1.6
 
TABLE:  "CONNECTIVITY - AREA"
   Area=2   Joint1=2   Joint2=32   Joint3=5   Joint4=3   GUID=fef8ab9e-5fc3-4415-af21-fbe1b3c30f14
   Area=3   Joint1=3   Joint2=5   Joint3=6   Joint4=1   GUID=c69688fd-20d7-4d7d-85e5-77bcfc70431f
   Area=4   Joint1=32   Joint2=40   Joint3=7   Joint4=5   GUID=629b8978-8757-46e4-a4f3-28b804a29134
   Area=5   Joint1=5   Joint2=7   Joint3=8   Joint4=6   GUID=e1c966ed-5d8c-43d7-a1ef-52827e510101
   Area=18   Joint1=2   Joint2=32   Joint3=33   Joint4=34   GUID=76013c58-153d-4113-890c-6feacf5905e8
   Area=19   Joint1=34   Joint2=33   Joint3=35   Joint4=36   GUID=41bd2c56-9e98-4a76-9fa7-7d66e27a00e0
   Area=22   Joint1=32   Joint2=40   Joint3=41   Joint4=33   GUID=15532db3-164b-4bac-bb4c-a00fa1322007
   Area=23   Joint1=33   Joint2=41   Joint3=42   Joint4=35   GUID=a51b25a0-6882-4637-8a0f-bf4214eff3df
 
TABLE:  "CONNECTIVITY - FRAME"
   Frame=1   JointI=2   JointJ=34   IsCurved=No   GUID=a2df12ab-07ce-4e92-a05c-41a52e5fc9c0
   Frame=2   JointI=34   JointJ=36   IsCurved=No   GUID=8f240cb2-d18c-4c59-bab6-fe8ec98ce329
   Frame=4   JointI=1   JointJ=3   IsCurved=No   GUID=d3989dda-eb68-4a01-a8d6-29e6e07b8e34
   Frame=6   JointI=3   JointJ=2   IsCurved=No   GUID=b7e41285-f746-4db7-a6e7-0b2efbf05551
   Frame=7   JointI=2   JointJ=32   IsCurved=No   GUID=4b9d794d-a302-41ec-8d34-e0fbfea2dff5
   Frame=8   JointI=32   JointJ=40   IsCurved=No   GUID=1abc1940-4cac-4853-9096-facfabf98ad5
 
TABLE:  "COORDINATE SYSTEMS"
   Name=GLOBAL   Type=Cartesian   X=0   Y=0   Z=0   AboutZ=0   AboutY=0   AboutX=0
 
TABLE:  "DATABASE DOCUMENTATION"
 
TABLE:  "DATABASE FORMAT TYPES"
   UnitsCurr=Yes   OverrideE=No
 
TABLE:  "FRAME AUTO MESH ASSIGNMENTS"
   Frame=1   AutoMesh=Yes   AtJoints=Yes   AtFrames=No   NumSegments=0   MaxLength=0   MaxDegrees=0
   Frame=2   AutoMesh=Yes   AtJoints=Yes   AtFrames=No   NumSegments=0   MaxLength=0   MaxDegrees=0
   Frame=4   AutoMesh=Yes   AtJoints=Yes   AtFrames=No   NumSegments=0   MaxLength=0   MaxDegrees=0
   Frame=6   AutoMesh=Yes   AtJoints=Yes   AtFrames=No   NumSegments=0   MaxLength=0   MaxDegrees=0
   Frame=7   AutoMesh=Yes   AtJoints=Yes   AtFrames=No   NumSegments=0   MaxLength=0   MaxDegrees=0
   Frame=8   AutoMesh=Yes   AtJoints=Yes   AtFrames=No   NumSegments=0   MaxLength=0   MaxDegrees=0
 
TABLE:  "FRAME DESIGN PROCEDURES"
   Frame=1   DesignProc="From Material"
   Frame=2   DesignProc="From Material"
   Frame=4   DesignProc="From Material"
   Frame=6   DesignProc="From Material"
   Frame=7   DesignProc="From Material"
   Frame=8   DesignProc="From Material"
 
TABLE:  "FRAME LOADS - DISTRIBUTED"
   Frame=7   LoadPat=DEAD   CoordSys=GLOBAL   Type=Force   Dir=Z   DistType=RelDist   RelDistA=0   RelDistB=1   AbsDistA=0   AbsDistB=1   FOverLA=-5.00000000020062   FOverLB=-5.00000000020062   GUID=f9ff7b81-9070-47d1-98f0-899cd0f54e39
   Frame=8   LoadPat=DEAD   CoordSys=GLOBAL   Type=Force   Dir=Z   DistType=RelDist   RelDistA=0   RelDistB=1   AbsDistA=0   AbsDistB=1   FOverLA=-5.00000000020062   FOverLB=-5.00000000020062   GUID=e8c6c506-0878-4047-a244-ef83be834b7c
   Frame=1   LoadPat=LIVE   CoordSys=GLOBAL   Type=Force   Dir=Z   DistType=RelDist   RelDistA=0   RelDistB=1   AbsDistA=0   AbsDistB=1   FOverLA=-6.00000000024074   FOverLB=-6.00000000024074   GUID=654bb850-169d-423f-a193-5f03d52a4974
   Frame=2   LoadPat=LIVE   CoordSys=GLOBAL   Type=Force   Dir=Z   DistType=RelDist   RelDistA=0   RelDistB=1   AbsDistA=0   AbsDistB=1   FOverLA=-6.00000000024074   FOverLB=-6.00000000024074   GUID=c28f19de-f0b1-41a6-84a4-775618f3ff2f
 
TABLE:  "FRAME LOAD TRANSFER OPTIONS"
   Frame=1   Transfer=Yes
   Frame=2   Transfer=Yes
   Frame=4   Transfer=Yes
   Frame=6   Transfer=Yes
   Frame=7   Transfer=Yes
   Frame=8   Transfer=Yes
 
TABLE:  "FRAME OUTPUT STATION ASSIGNMENTS"
   Frame=1   StationType=MaxStaSpcg   MaxStaSpcg=0.5   AddAtElmInt=Yes   AddAtPtLoad=Yes
   Frame=2   StationType=MaxStaSpcg   MaxStaSpcg=0.5   AddAtElmInt=Yes   AddAtPtLoad=Yes
   Frame=4   StationType=MinNumSta   MinNumSta=3   AddAtElmInt=Yes   AddAtPtLoad=Yes
   Frame=6   StationType=MinNumSta   MinNumSta=3   AddAtElmInt=Yes   AddAtPtLoad=Yes
   Frame=7   StationType=MaxStaSpcg   MaxStaSpcg=0.5   AddAtElmInt=Yes   AddAtPtLoad=Yes
   Frame=8   StationType=MaxStaSpcg   MaxStaSpcg=0.5   AddAtElmInt=Yes   AddAtPtLoad=Yes
 
TABLE:  "FRAME SECTION ASSIGNMENTS"
   Frame=1   AutoSelect=N.A.   AnalSect=BEM25x60   MatProp=Default
   Frame=2   AutoSelect=N.A.   AnalSect=BEM25x60   MatProp=Default
   Frame=4   AutoSelect=N.A.   AnalSect=COL30x50   MatProp=Default
   Frame=6   AutoSelect=N.A.   AnalSect=COL30x50   MatProp=Default
   Frame=7   AutoSelect=N.A.   AnalSect=BEM25x60   MatProp=Default
   Frame=8   AutoSelect=N.A.   AnalSect=BEM25x60   MatProp=Default
 
TABLE:  "FRAME SECTION PROPERTIES 01 - GENERAL"
   SectionName=BEM25x60   Material=BIMConcrete   Shape=Rectangular   t3=0.6   t2=0.25   Area=0.15   TorsConst=0.00230674790747372   I33=0.0045   I22=0.00078125   I23=0   AS2=0.125   AS3=0.125   S33=0.015   S22=0.00625   Z33=0.0225 _
        Z22=0.009375   R33=0.173205080756888   R22=0.0721687836487032   Color=Gray8Dark   FromFile=No   AMod=1   A2Mod=1   A3Mod=1   JMod=1   I2Mod=1   I3Mod=1   MMod=1   WMod=1
   SectionName=COL30x50   Material=BIMConcrete   Shape=Rectangular   t3=0.5   t2=0.3   Area=0.15   TorsConst=0.0028173708   I33=0.003125   I22=0.001125   I23=0   AS2=0.125   AS3=0.125   S33=0.0125   S22=0.0075   Z33=0.01875   Z22=0.01125 _
        R33=0.144337567297406   R22=0.0866025403784439   Color=Magenta   FromFile=No   AMod=1   A2Mod=1   A3Mod=1   JMod=1   I2Mod=1   I3Mod=1   MMod=1   WMod=1
   SectionName=W44X335   Material="Default Material"   Shape="I/Wide Flange"   t3=1.1176   t2=0.403859990310669   tf=0.0449579995155334   tw=0.0261619992733002   t2b=0.403859990310669   tfb=0.0449579995155334   Area=0.06354826 _
        TorsConst=3.10924862220825E-05   I33=0.01294479733616   I22=0.00049947771072   I23=0   AS2=0.0292386510031128   AS3=0.0302612290124512   S33=0.0231653495636364   S22=0.00247351915368382   Z33=0.02654704368   Z22=0.003867347104 _
        R33=0.451331656278829   R22=0.0886556104196641   Color=Red   FromFile=Yes   AMod=1   A2Mod=1   A3Mod=1   JMod=1   I2Mod=1   I3Mod=1   MMod=1   WMod=1   SectInFile=W44X335   FileName="C:\Program Files\Computers and Structures\SAP2000 19\AISC14.pro"
 
TABLE:  "FRAME SECTION PROPERTIES 02 - CONCRETE COLUMN"
   SectionName=BEM25x60   RebarMatL=A615Gr60   RebarMatC=A615Gr60   ReinfConfig=Rectangular   LatReinf=Ties   Cover=0.04   NumBars3Dir=3   NumBars2Dir=3   BarSizeL=#9   BarSizeC=#4   SpacingC=0.15   NumCBars2=3   NumCBars3=3   ReinfType=Design
   SectionName=COL30x50   RebarMatL=A615Gr60   RebarMatC=A615Gr60   ReinfConfig=Rectangular   LatReinf=Ties   Cover=0.04   NumBars3Dir=3   NumBars2Dir=3   BarSizeL=#9   BarSizeC=#4   SpacingC=0.15   NumCBars2=3   NumCBars3=3   ReinfType=Design
 
TABLE:  "FRAME SECTION PROPERTIES 13 - TIME DEPENDENT"
   SectionName=BEM25x60   TypeSize=Auto   AutoSFSize=0
   SectionName=COL30x50   TypeSize=Auto   AutoSFSize=0
   SectionName=W44X335   TypeSize=Auto   AutoSFSize=0
 
TABLE:  "FUNCTION - PLOT FUNCTIONS"
   PlotFunc="Input Energy"   Type=Energy   Component=Input   Mode=All
 
TABLE:  "FUNCTION - POWER SPECTRAL DENSITY - USER"
   Name=UNIFPSD   Frequency=0   Value=1
   Name=UNIFPSD   Frequency=1   Value=1
 
TABLE:  "FUNCTION - RESPONSE SPECTRUM - USER"
   Name=UNIFRS   Period=0   Accel=1   FuncDamp=0.05
   Name=UNIFRS   Period=1   Accel=1
 
TABLE:  "FUNCTION - STEADY STATE - USER"
   Name=UNIFSS   Frequency=0   Value=1
   Name=UNIFSS   Frequency=1   Value=1
 
TABLE:  "FUNCTION - TIME HISTORY - USER"
   Name=RAMPTH   Time=0   Value=0
   Name=RAMPTH   Time=1   Value=1
   Name=RAMPTH   Time=4   Value=1
   Name=UNIFTH   Time=0   Value=1
   Name=UNIFTH   Time=1   Value=1
 
TABLE:  "GRID LINES"
   CoordSys=GLOBAL   AxisDir=X   XRYZCoord=0   LineType=Primary   LineColor=Gray8Dark   Visible=Yes   BubbleLoc=End   AllVisible=Yes   BubbleSize=2.4384
   CoordSys=GLOBAL   AxisDir=X   XRYZCoord=2   LineType=Primary   LineColor=Gray8Dark   Visible=Yes   BubbleLoc=End
   CoordSys=GLOBAL   AxisDir=Y   XRYZCoord=0   LineType=Primary   LineColor=Gray8Dark   Visible=Yes   BubbleLoc=End
   CoordSys=GLOBAL   AxisDir=Y   XRYZCoord=2   LineType=Primary   LineColor=Gray8Dark   Visible=Yes   BubbleLoc=End
   CoordSys=GLOBAL   AxisDir=Z   XRYZCoord=0   LineType=Primary   LineColor=Gray8Dark   Visible=Yes   BubbleLoc=End
   CoordSys=GLOBAL   AxisDir=Z   XRYZCoord=3   LineType=Primary   LineColor=Gray8Dark   Visible=Yes   BubbleLoc=End
 
TABLE:  "GROUPS 1 - DEFINITIONS"
   GroupName=ALL   Selection=Yes   SectionCut=Yes   Steel=Yes   Concrete=Yes   Aluminum=Yes   ColdFormed=Yes   Stage=Yes   Bridge=Yes   AutoSeismic=No   AutoWind=No   SelDesSteel=No   SelDesAlum=No   SelDesCold=No   MassWeight=Yes   Color=Red
 
TABLE:  "JOINT COORDINATES"
   Joint=1   CoordSys=GLOBAL   CoordType=Cartesian   XorR=0   Y=0   Z=0   SpecialJt=Yes   GUID=50d62df0-cb34-478f-a9ee-266b8fd62d8d
   Joint=2   CoordSys=GLOBAL   CoordType=Cartesian   XorR=0   Y=0   Z=3   SpecialJt=Yes   GUID=50d62df0-cb34-478f-a9ee-266b8fd62d8d
   Joint=3   CoordSys=GLOBAL   CoordType=Cartesian   XorR=0   Y=0   Z=1.5   SpecialJt=Yes   GUID=e947bf25-104f-416e-a42e-26c482701851
   Joint=5   CoordSys=GLOBAL   CoordType=Cartesian   XorR=1   Y=0   Z=1.5   SpecialJt=Yes   GUID=e947bf25-104f-416e-a42e-26c482701851
   Joint=6   CoordSys=GLOBAL   CoordType=Cartesian   XorR=1   Y=0   Z=0   SpecialJt=Yes   GUID=e947bf25-104f-416e-a42e-26c482701851
   Joint=7   CoordSys=GLOBAL   CoordType=Cartesian   XorR=2   Y=0   Z=1.5   SpecialJt=Yes   GUID=e947bf25-104f-416e-a42e-26c482701851
   Joint=8   CoordSys=GLOBAL   CoordType=Cartesian   XorR=2   Y=0   Z=0   SpecialJt=Yes   GUID=c010d817-5139-482f-a276-cc8246dd5d6c
   Joint=32   CoordSys=GLOBAL   CoordType=Cartesian   XorR=1   Y=0   Z=3   SpecialJt=Yes   GUID=50d62df0-cb34-478f-a9ee-266b8fd62d8d
   Joint=33   CoordSys=GLOBAL   CoordType=Cartesian   XorR=1   Y=1   Z=3   SpecialJt=Yes   GUID=50d62df0-cb34-478f-a9ee-266b8fd62d8d
   Joint=34   CoordSys=GLOBAL   CoordType=Cartesian   XorR=0   Y=1   Z=3   SpecialJt=Yes   GUID=50d62df0-cb34-478f-a9ee-266b8fd62d8d
   Joint=35   CoordSys=GLOBAL   CoordType=Cartesian   XorR=1   Y=2   Z=3   SpecialJt=Yes   GUID=50d62df0-cb34-478f-a9ee-266b8fd62d8d
   Joint=36   CoordSys=GLOBAL   CoordType=Cartesian   XorR=0   Y=2   Z=3   SpecialJt=Yes   GUID=50d62df0-cb34-478f-a9ee-266b8fd62d8d
   Joint=40   CoordSys=GLOBAL   CoordType=Cartesian   XorR=2   Y=0   Z=3   SpecialJt=Yes   GUID=50d62df0-cb34-478f-a9ee-266b8fd62d8d
   Joint=41   CoordSys=GLOBAL   CoordType=Cartesian   XorR=2   Y=1   Z=3   SpecialJt=Yes   GUID=50d62df0-cb34-478f-a9ee-266b8fd62d8d
   Joint=42   CoordSys=GLOBAL   CoordType=Cartesian   XorR=2   Y=2   Z=3   SpecialJt=Yes   GUID=50d62df0-cb34-478f-a9ee-266b8fd62d8d
 
TABLE:  "JOINT PATTERN DEFINITIONS"
   Pattern=Default
 
TABLE:  "JOINT RESTRAINT ASSIGNMENTS"
   Joint=1   U1=Yes   U2=Yes   U3=Yes   R1=Yes   R2=Yes   R3=Yes
   Joint=8   U1=Yes   U2=Yes   U3=Yes   R1=Yes   R2=Yes   R3=Yes
   Joint=36   U1=Yes   U2=Yes   U3=Yes   R1=No   R2=No   R3=No
   Joint=42   U1=No   U2=No   U3=Yes   R1=No   R2=No   R3=No
 
TABLE:  "LOAD CASE DEFINITIONS"
   Case=DEAD   Type=LinStatic   InitialCond=Zero   DesTypeOpt="Prog Det"   DesignType=Dead   DesActOpt="Prog Det"   DesignAct=Non-Composite   AutoType=None   RunCase=Yes   GUID=a6f0e9d7-018d-4abc-b158-8fec25bce540
   Case=MODAL   Type=LinModal   InitialCond=Zero   DesTypeOpt="Prog Det"   DesignType=Other   DesActOpt="Prog Det"   DesignAct=Other   AutoType=None   RunCase=Yes   GUID=32886c5b-15ec-48bc-a5fd-3280e356d887
   Case=DEADLOAD   Type=LinStatic   InitialCond=Zero   DesTypeOpt="Prog Det"   DesignType=Dead   DesActOpt="Prog Det"   DesignAct=Non-Composite   AutoType=None   RunCase=Yes   GUID=a6596a12-8a6e-4e48-a8d9-4f3ce337bff4
   Case=LIVELOAD   Type=LinStatic   InitialCond=Zero   DesTypeOpt="Prog Det"   DesignType=Live   DesActOpt="Prog Det"   DesignAct="Short-Term Composite"   AutoType=None   RunCase=Yes   GUID=5ac3bd7d-427d-462f-9c7f-da5e8f9abd55
 
TABLE:  "LOAD PATTERN DEFINITIONS"
   LoadPat=DEAD   DesignType=Dead   SelfWtMult=1   GUID=8df6a783-f847-42b4-9cef-98428e0b9416
   LoadPat=LIVE   DesignType=Live   SelfWtMult=0   GUID=07e48025-1811-4cfb-9960-d4a2a03359cf
 
TABLE:  "MASS SOURCE"
   MassSource=MSSSRC1   Elements=Yes   Masses=Yes   Loads=No   IsDefault=Yes
 
TABLE:  "MATERIAL PROPERTIES 01 - GENERAL"
   Material=4000Psi   Type=Concrete   SymType=Isotropic   TempDepend=No   Color=Blue   Notes="Customary f'c 4000 psi 13/01/2018 02:10:46 ุต"
   Material=A416Gr270   Type=Tendon   SymType=Uniaxial   TempDepend=No   Color=Magenta   Notes="ASTM A416 Grade 270 2018-02-02 7:26:18 PM"
   Material=A615Gr60   Type=Rebar   SymType=Uniaxial   TempDepend=No   Color=Yellow   Notes="ASTM A615 Grade 60 13/01/2018 02:10:50 ุต"
   Material=A992Fy50   Type=Steel   SymType=Isotropic   TempDepend=No   Color=Gray8Dark   Notes="ASTM A992 Grade 50 13/01/2018 02:10:46 ุต"
   Material=BIMConcrete   Type=Concrete   SymType=Isotropic   TempDepend=No   Color=Green
   Material="Default Material"   Type=Other   SymType=Isotropic   TempDepend=No   Color=Cyan
 
TABLE:  "MATERIAL PROPERTIES 03A - STEEL DATA"
   Material=A992Fy50   Fy=35153.4813069626   Fu=45699.5256990514   EffFy=38668.8294376589   EffFu=50269.4782689565   SSCurveOpt=Simple   SSHysType=Kinematic   SHard=0.015   SMax=0.11   SRup=0.17   FinalSlope=-0.1
 
TABLE:  "MATERIAL PROPERTIES 03B - CONCRETE DATA"
   Material=4000Psi   Fc=2812.27850455701   eFc=2812.27850455701   LtWtConc=No   SSCurveOpt=Mander   SSHysType=Takeda   SFc=0.00221914   SCap=0.005   FinalSlope=-0.1   FAngle=0   DAngle=0
   Material=BIMConcrete   Fc=2812.27844275832   eFc=2812.27844275832   LtWtConc=No   SSCurveOpt=Mander   SSHysType=Takeda   SFc=0.00221914221766202   SCap=0.005   FinalSlope=-0.1   FAngle=0   DAngle=0
 
TABLE:  "MATERIAL PROPERTIES 03E - REBAR DATA"
   Material=A615Gr60   Fy=42184.1775683551   Fu=63276.2663525327   EffFy=46402.5953251906   EffFu=69603.892987786   SSCurveOpt=Simple   SSHysType=Kinematic   SHard=0.01   SCap=0.09   FinalSlope=-0.1   UseCTDef=No
 
TABLE:  "MATERIAL PROPERTIES 03F - TENDON DATA"
   Material=A416Gr270   Fy=172322.365366731   Fu=189828.799057598   SSCurveOpt="270 ksi"   SSHysType=Kinematic   FinalSlope=-0.1
 
TABLE:  "MATERIAL PROPERTIES 03G - OTHER DATA"
   Material="Default Material"   SSHysType=Takeda   FAngle=0   DAngle=0
 
TABLE:  "MATERIAL PROPERTIES 04 - USER STRESS-STRAIN CURVES"
   Material="Default Material"   Strain=-3.95092843511292E-07   Stress=-1
   Material="Default Material"   Strain=0   Stress=0   PointID=A
   Material="Default Material"   Strain=3.95092843511292E-07   Stress=1
 
TABLE:  "MATERIAL PROPERTIES 06 - DAMPING PARAMETERS"
   Material=4000Psi   ModalRatio=0   VisMass=0   VisStiff=0   HysMass=0   HysStiff=0
   Material=A416Gr270   ModalRatio=0   VisMass=0   VisStiff=0   HysMass=0   HysStiff=0
   Material=A615Gr60   ModalRatio=0   VisMass=0   VisStiff=0   HysMass=0   HysStiff=0
   Material=A992Fy50   ModalRatio=0   VisMass=0   VisStiff=0   HysMass=0   HysStiff=0
   Material=BIMConcrete   ModalRatio=0   VisMass=0   VisStiff=0   HysMass=0   HysStiff=0
   Material="Default Material"   ModalRatio=0   VisMass=0   VisStiff=0   HysMass=0   HysStiff=0
 
TABLE:  "OPTIONS - COLORS - DISPLAY"
   DeviceType=Screen   Points=Blue   LinesFrame=Blue   LinesFrmDL=Blue   LinesCable=Green   LinesTendon=Green   SpringLinks=Green   Restraints=Green   Releases=Green   Axes=Cyan   Text=Black   ShadowLines=Gray8Dark   GuideLines=Gray8Dark _
        Highlight=Red   Selection=10504778   AreaFillBot=Red   AreaFillTop=16744703   AreaFillSd=Red   AreaEdge=DarkRed   SolidF1=Red   SolidF2=Blue   SolidF3=Green   SolidF4=Yellow   SolidF5=White   SolidF6=Cyan   SolidEdge=DarkRed _
        Floor=Gray4   Background=White   BGLowLeft=White   BGLowRight=White   BGUpRight=White   Darkness=0.5
   DeviceType=Printer   Points=Gray8Dark   LinesFrame=Black   LinesFrmDL=Gray4   LinesCable=Black   LinesTendon=Black   SpringLinks=Gray8Dark   Restraints=Gray8Dark   Releases=Gray4   Axes=Black   Text=Black   ShadowLines=Gray4 _
        GuideLines=Gray4   Highlight=Black   Selection=Black   AreaFillBot=Gray4   AreaFillTop=Gray8Dark   AreaFillSd=Gray4   AreaEdge=Black   SolidF1=Gray1Light   SolidF2=Gray2   SolidF3=Gray3   SolidF4=Gray4   SolidF5=Gray5 _
        SolidF6=Gray6   SolidEdge=Black   Floor=Gray4   Background=White   BGLowLeft=White   BGLowRight=White   BGUpRight=White   Darkness=0.5
   DeviceType="Color Printer"   Points=Blue   LinesFrame=Blue   LinesFrmDL=Blue   LinesCable=Green   LinesTendon=Green   SpringLinks=Green   Restraints=Green   Releases=Green   Axes=Cyan   Text=Black   ShadowLines=Gray8Dark _
        GuideLines=Gray8Dark   Highlight=Red   Selection=10504778   AreaFillBot=Red   AreaFillTop=16744703   AreaFillSd=Red   AreaEdge=DarkRed   SolidF1=Red   SolidF2=Blue   SolidF3=Green   SolidF4=Yellow   SolidF5=White   SolidF6=Cyan _
        SolidEdge=DarkRed   Floor=Gray4   Background=White   BGLowLeft=White   BGLowRight=White   BGUpRight=White   Darkness=0.5
 
TABLE:  "OPTIONS - COLORS - OUTPUT"
   DeviceType=Screen   Contour1=13107400   Contour2=6553828   Contour3=Red   Contour4=16639   Contour5=Orange   Contour6=43775   Contour7=54527   Contour8=Yellow   Contour9=65408   Contour10=Green   Contour11=8453888   Contour12=Cyan _
        Contour13=16755200   Contour14=16733440   Contour15=Blue   Transpare=0.5   Ratio1=Cyan   Ratio2=Green   Ratio3=Yellow   Ratio4=Orange   Ratio5=Red   RatioNotD=Gray4   RatioNotC=Red   RatioVal1=0.5   RatioVal2=0.7   RatioVal3=0.9 _
        RatioVal4=1   DFillPos=Blue   DFillNeg=Red   DFillRPos=Green   DFillRNeg=Green
   DeviceType=Printer   Contour1=Black   Contour2=3158064   Contour3=4210752   Contour4=5263440   Contour5=6316128   Contour6=7368816   Contour7=Gray8Dark   Contour8=Gray7   Contour9=Gray6   Contour10=Gray5   Contour11=Gray4 _
        Contour12=Gray3   Contour13=Gray2   Contour14=Gray1Light   Contour15=White   Transpare=0   Ratio1=Gray2   Ratio2=Gray4   Ratio3=Gray8Dark   Ratio4=4210752   Ratio5=Black   RatioNotD=Gray4   RatioNotC=Black   RatioVal1=0.5 _
        RatioVal2=0.7   RatioVal3=0.9   RatioVal4=1   DFillPos=Gray8Dark   DFillNeg=Gray8Dark   DFillRPos=4210752   DFillRNeg=4210752
   DeviceType="Color Printer"   Contour1=13107400   Contour2=6553828   Contour3=Red   Contour4=16639   Contour5=Orange   Contour6=43775   Contour7=54527   Contour8=Yellow   Contour9=65408   Contour10=Green   Contour11=8453888 _
        Contour12=Cyan   Contour13=16755200   Contour14=16733440   Contour15=Blue   Transpare=0   Ratio1=Cyan   Ratio2=Green   Ratio3=Yellow   Ratio4=Orange   Ratio5=Red   RatioNotD=Gray4   RatioNotC=Red   RatioVal1=0.5   RatioVal2=0.7 _
        RatioVal3=0.9   RatioVal4=1   DFillPos=Blue   DFillNeg=Red   DFillRPos=Green   DFillRNeg=Green
 
TABLE:  "PREFERENCES - ALUMINUM DESIGN - AA-ASD 2000"
   THDesign=Envelopes   FrameType="Moment Frame"   SRatioLimit=1   MaxIter=1   LatFact=1.33333333333333   UseLatFact=No   Bridge=No
 
TABLE:  "PREFERENCES - COLD FORMED DESIGN - AISI-ASD96"
   THDesign=Envelopes   FrameType="Braced Frame"   SRatioLimit=1   MaxIter=1   OmegaBS=1.67   OmegaBUS=1.67   OmegaBLTB=1.67   OmegaVS=1.67   OmegaVNS=1.5   OmegaT=1.67   OmegaC=1.8
 
TABLE:  "PREFERENCES - CONCRETE DESIGN - ACI 318-14"
   THDesign=Envelopes   NumCurves=24   NumPoints=11   MinEccen=Yes   PatLLF=0.75   UFLimit=0.95   SeisCat=D   Rho=1   Sds=0.5   PhiT=0.9   PhiCTied=0.65   PhiCSpiral=0.75   PhiV=0.75   PhiVSeismic=0.6   PhiVJoint=0.85
 
TABLE:  "PREFERENCES - DIMENSIONAL"
   MergeTol=0.001   FineGrid=0.25   Nudge=0.25   SelectTol=3   SnapTol=12   SLineThick=1   PLineThick=4   MaxFont=8   MinFont=3   AutoZoom=10   ShrinkFact=70   TextFileLen=240
 
TABLE:  "PREFERENCES - STEEL DESIGN - AISC 360-10"
   THDesign=Envelopes   FrameType=SMF   PatLLF=0.75   SRatioLimit=0.95   MaxIter=1   SDC=D   SeisCode=Yes   SeisLoad=Yes   ImpFactor=1   SystemRho=1   SystemSds=0.5   SystemR=8   SystemCd=5.5   Omega0=3   Provision=LRFD _
        AMethod="Direct Analysis"   SOMethod="General 2nd Order"   SRMethod="Tau-b Fixed"   NLCoeff=0.002   PhiB=0.9   PhiC=0.9   PhiTY=0.9   PhiTF=0.75   PhiV=0.9   PhiVRolledI=1   PhiVT=0.9   PlugWeld=Yes   HSSWelding=ERW   HSSReduceT=No _
        CheckDefl=No   DLRat=120   SDLAndLLRat=120   LLRat=360   TotalRat=240   NetRat=240
 
TABLE:  "PROGRAM CONTROL"
   ProgramName=SAP2000   Version=19.2.0   CurrUnits="Tonf, m, C"   SteelCode="AISC 360-10"   ConcCode="ACI 318-14"   AlumCode="AA-ASD 2000"   ColdCode=AISI-ASD96   RegenHinge=Yes
 
TABLE:  "PROJECT INFORMATION"
   Item="Company Name"
   Item="Client Name"
   Item="Project Name"
   Item="Project Number"
   Item="Model Name"
   Item="Model Description"
   Item="Revision Number"
   Item="Frame Type"
   Item=Engineer
   Item=Checker
   Item=Supervisor
   Item="Issue Code"
   Item="Design Code"
 
TABLE:  "REBAR SIZES"
   RebarID=#2   Area=3.2258E-05   Diameter=0.00635
   RebarID=#3   Area=7.09675996154547E-05   Diameter=0.009525
   RebarID=#4   Area=0.000129032001922727   Diameter=0.0127
   RebarID=#5   Area=0.000199999601538181   Diameter=0.015875
   RebarID=#6   Area=0.000283870398461819   Diameter=0.01905
   RebarID=#7   Area=0.000387096015381813   Diameter=0.022225
   RebarID=#8   Area=0.000509676413843632   Diameter=0.0254
   RebarID=#9   Area=0.00064516   Diameter=0.0286512005329132
   RebarID=#10   Area=0.00081935318769455   Diameter=0.0322579995155334
   RebarID=#11   Area=0.00100644956308365   Diameter=0.0358139991521835
   RebarID=#14   Area=0.00145161   Diameter=0.0430021989583969
   RebarID=#18   Area=0.00258064   Diameter=0.0573277992248535
   RebarID=10M   Area=0.000100000002655387   Diameter=0.011300000667572
   RebarID=15M   Area=0.000200000005310774   Diameter=0.0159999999403954
   RebarID=20M   Area=0.000300000017579794   Diameter=0.0194999997854233
   RebarID=25M   Area=0.000500000022890568   Diameter=0.0252000016093254
   RebarID=30M   Area=0.000700000008974075   Diameter=0.0299000008821487
   RebarID=35M   Area=0.00100000004578114   Diameter=0.0357000011444092
   RebarID=45M   Area=0.00150000010712624   Diameter=0.0437000003576279
   RebarID=55M   Area=0.00250000007599831   Diameter=0.0564000033855438
   RebarID=6d   Area=2.83000004149973E-05   Diameter=0.006000000166893
   RebarID=8d   Area=5.02999995571375E-05   Diameter=0.00799999997019768
   RebarID=10d   Area=7.85000013634562E-05   Diameter=0.00999999977350235
   RebarID=12d   Area=0.000113000009249449   Diameter=0.012000000333786
   RebarID=14d   Area=0.000154000010818839   Diameter=0.0140000008940697
   RebarID=16d   Area=0.000201000015431643   Diameter=0.0159999999403954
   RebarID=20d   Area=0.000314000005453825   Diameter=0.0199999995470047
   RebarID=25d   Area=0.000491000008711815   Diameter=0.0250000001907349
   RebarID=26d   Area=0.000531000029001236   Diameter=0.0259999997138977
   RebarID=28d   Area=0.000616000043275356   Diameter=0.0280000017881393
   RebarID=N12   Area=0.000113000009249449   Diameter=0.012000000333786
   RebarID=N16   Area=0.000201000015431643   Diameter=0.0159999999403954
   RebarID=N20   Area=0.000314000005453825   Diameter=0.0199999995470047
   RebarID=N24   Area=0.000452000036997795   Diameter=0.024000000667572
   RebarID=N28   Area=0.000616000043275356   Diameter=0.0280000017881393
   RebarID=N32   Area=0.00080400006172657   Diameter=0.0319999998807907
   RebarID=N36   Area=0.00102000001747131   Diameter=0.036000001001358
 
TABLE:  "SOLID PROPERTY DEFINITIONS"
   SolidProp=Solid1   Material=4000Psi   MatAngleA=0   MatAngleB=0   MatAngleC=0   InComp=Yes   Color=Yellow
 
END TABLE DATA
